************************************************************************
* auCdl Netlist:
* 
* Library Name:  Homwork3
* Top Cell Name: MAD32
* View Name:     schematic
* Netlisted on:  May  5 21:00:39 2023
************************************************************************

*.BIPOLAR
*.RESI = 2000 
*.RESVAL
*.CAPVAL
*.DIOPERI
*.DIOAREA
*.EQUATION
*.SCALE METER
*.MEGA
*.PARAM

.GLOBAL vdd!
+        gnd!
+        GND!

*.PIN vdd!
*+    gnd!
*+    GND!

************************************************************************
* Library Name: Homwork3
* Cell Name:    NAND_X2
* View Name:    schematic
************************************************************************

.SUBCKT NAND_X2 A B out
*.PININFO A:I B:I out:O
MM0 out A vdd! vdd! P_18 W=1.00u L=180.00n
MM1 out B vdd! vdd! P_18 W=1.00u L=180.00n
MM2 out A net11 gnd! N_18 W=1.00u L=180.00n
MM3 net11 B gnd! gnd! N_18 W=1.00u L=180.00n
.ENDS

************************************************************************
* Library Name: Homwork3
* Cell Name:    NAND_X1
* View Name:    schematic
************************************************************************

.SUBCKT NAND_X1 A B out
*.PININFO A:I B:I out:O
MM0 out A vdd! vdd! P_18 W=500.00n L=180.00n
MM1 out B vdd! vdd! P_18 W=500.00n L=180.00n
MM2 out A net13 gnd! N_18 W=500.00n L=180.00n
MM3 net13 B gnd! gnd! N_18 W=500.00n L=180.00n
.ENDS

************************************************************************
* Library Name: Homwork3
* Cell Name:    INV_X2
* View Name:    schematic
************************************************************************

.SUBCKT INV_X2 in out
*.PININFO in:I out:O
MM0 out in vdd! vdd! P_18 W=1.00u L=180.00n
MM1 out in gnd! gnd! N_18 W=500.00n L=180.00n
.ENDS

************************************************************************
* Library Name: Homwork3
* Cell Name:    NOR_X1
* View Name:    schematic
************************************************************************

.SUBCKT NOR_X1 A B out
*.PININFO A:I B:I out:O
MM2 out A gnd! gnd! N_18 W=250.00n L=180.00n
MM3 out B gnd! gnd! N_18 W=250.00n L=180.00n
MM1 out B net16 vdd! P_18 W=1.00u L=180.00n
MM0 net16 A vdd! vdd! P_18 W=1.00u L=180.00n
.ENDS

************************************************************************
* Library Name: Homwork3
* Cell Name:    NOR_X2
* View Name:    schematic
************************************************************************

.SUBCKT NOR_X2 A B out
*.PININFO A:I B:I out:O
MM2 out A gnd! gnd! N_18 W=500.00n L=180.00n
MM3 out B gnd! gnd! N_18 W=500.00n L=180.00n
MM1 out B net16 vdd! P_18 W=2.00u L=180.00n
MM0 net16 A vdd! vdd! P_18 W=2.00u L=180.00n
.ENDS

************************************************************************
* Library Name: Homwork3
* Cell Name:    INV_X1
* View Name:    schematic
************************************************************************

.SUBCKT INV_X1 in out
*.PININFO in:I out:O
MM0 out in vdd! vdd! P_18 W=500.00n L=180.00n
MM1 out in gnd! gnd! N_18 W=250.00n L=180.00n
.ENDS

************************************************************************
* Library Name: Homwork3
* Cell Name:    MAD32_DW01_add_8
* View Name:    schematic
************************************************************************

.SUBCKT MAD32_DW01_add_8 A[29] A[28] A[27] A[26] A[25] A[24] A[23] A[22] A[21] 
+ A[20] A[19] A[18] A[17] A[16] A[15] A[14] A[13] A[12] A[11] A[10] A[9] A[8] 
+ A[7] A[6] A[5] A[4] A[3] A[2] A[1] A[0] B[29] B[28] B[27] B[26] B[25] B[24] 
+ B[23] B[22] B[21] B[20] B[19] B[18] B[17] B[16] B[15] B[14] B[13] B[12] 
+ B[11] B[10] B[9] B[8] B[7] B[6] B[5] B[4] B[3] B[2] B[1] B[0] CI CO SUM[29] 
+ SUM[28] SUM[27] SUM[26] SUM[25] SUM[24] SUM[23] SUM[22] SUM[21] SUM[20] 
+ SUM[19] SUM[18] SUM[17] SUM[16] SUM[15] SUM[14] SUM[13] SUM[12] SUM[11] 
+ SUM[10] SUM[9] SUM[8] SUM[7] SUM[6] SUM[5] SUM[4] SUM[3] SUM[2] SUM[1] SUM[0]
*.PININFO A[29]:I A[28]:I A[27]:I A[26]:I A[25]:I A[24]:I A[23]:I A[22]:I 
*.PININFO A[21]:I A[20]:I A[19]:I A[18]:I A[17]:I A[16]:I A[15]:I A[14]:I 
*.PININFO A[13]:I A[12]:I A[11]:I A[10]:I A[9]:I A[8]:I A[7]:I A[6]:I A[5]:I 
*.PININFO A[4]:I A[3]:I A[2]:I A[1]:I A[0]:I B[29]:I B[28]:I B[27]:I B[26]:I 
*.PININFO B[25]:I B[24]:I B[23]:I B[22]:I B[21]:I B[20]:I B[19]:I B[18]:I 
*.PININFO B[17]:I B[16]:I B[15]:I B[14]:I B[13]:I B[12]:I B[11]:I B[10]:I 
*.PININFO B[9]:I B[8]:I B[7]:I B[6]:I B[5]:I B[4]:I B[3]:I B[2]:I B[1]:I 
*.PININFO B[0]:I CI:I CO:O SUM[29]:O SUM[28]:O SUM[27]:O SUM[26]:O SUM[25]:O 
*.PININFO SUM[24]:O SUM[23]:O SUM[22]:O SUM[21]:O SUM[20]:O SUM[19]:O 
*.PININFO SUM[18]:O SUM[17]:O SUM[16]:O SUM[15]:O SUM[14]:O SUM[13]:O 
*.PININFO SUM[12]:O SUM[11]:O SUM[10]:O SUM[9]:O SUM[8]:O SUM[7]:O SUM[6]:O 
*.PININFO SUM[5]:O SUM[4]:O SUM[3]:O SUM[2]:O SUM[1]:O SUM[0]:O
*.CONNECT SUM[6] A[6] 
*.CONNECT SUM[4] A[4] 
*.CONNECT A[6] A[6] 
*.CONNECT A[9] A[9] 
*.CONNECT SUM[2] A[2] 
*.CONNECT SUM[8] A[8] 
*.CONNECT A[1] A[1] 
*.CONNECT SUM[10] A[10] 
*.CONNECT A[8] A[8] 
*.CONNECT SUM[11] A[11] 
*.CONNECT A[7] A[7] 
*.CONNECT SUM[9] A[9] 
*.CONNECT A[3] A[3] 
*.CONNECT SUM[14] A[14] 
*.CONNECT A[13] A[13] 
*.CONNECT SUM[7] A[7] 
*.CONNECT A[4] A[4] 
*.CONNECT A[12] A[12] 
*.CONNECT A[2] A[2] 
*.CONNECT SUM[12] A[12] 
*.CONNECT SUM[0] A[0] 
*.CONNECT SUM[5] A[5] 
*.CONNECT A[10] A[10] 
*.CONNECT SUM[3] A[3] 
*.CONNECT SUM[13] A[13] 
*.CONNECT SUM[1] A[1] 
*.CONNECT A[11] A[11] 
*.CONNECT A[14] A[14] 
*.CONNECT A[5] A[5] 
*.CONNECT A[0] A[0] 
XU91 n231 n35 / INV_X2
XU16 n230 n5 / INV_X2
XU15 n4 n221 / INV_X2
XU6 n212 n166 / INV_X2
XU253 n185 n175 / INV_X2
XU30 n260 n10 / INV_X2
XU158 n46 SUM[16] / INV_X2
XU274 n255 n253 / INV_X2
XU276 n254 n256 / INV_X2
XU257 A[21] n192 / INV_X2
XU256 B[21] n193 / INV_X2
XU262 n209 n208 / INV_X2
XU273 n248 n239 / INV_X2
XU18 n6 n7 / INV_X2
XU84 n257 n246 / INV_X2
XU174 n53 n157 / INV_X2
XU172 n258 n50 / INV_X2
XU270 n235 n219 / INV_X2
XU277 n261 n260 / INV_X2
XU263 n213 n196 / INV_X2
XU272 n232 n245 / INV_X2
XU265 A[20] n214 / INV_X2
XU133 A[18] n249 / INV_X2
XU4 B[18] n250 / INV_X2
XU12 n1 n210 / INV_X2
XU78 n29 n211 / INV_X2
XU95 n26 n244 / INV_X2
XU267 n218 n217 / INV_X2
XU193 n262 SUM[15] / INV_X2
XU59 n22 SUM[27] / INV_X2
XU76 n28 SUM[23] / INV_X2
XU137 n42 n144 / INV_X2
XU36 n14 n152 / INV_X2
XU215 n62 n61 / INV_X2
XU217 n70 n69 / INV_X2
XU161 n127 n48 / INV_X2
XU223 n94 n93 / INV_X2
XU237 n137 n136 / INV_X2
XU232 n122 n121 / INV_X2
XU34 A[22] n12 / INV_X2
XU241 n151 n147 / INV_X2
XU228 n108 n107 / INV_X2
XU191 n59 n67 / INV_X2
XU219 n79 n71 / INV_X2
XU187 n57 n75 / INV_X2
XU178 n55 n101 / INV_X2
XU221 n91 n81 / INV_X2
XU61 n84 n78 / INV_X2
XU226 n105 n95 / INV_X2
XU180 n56 n86 / INV_X2
XU105 n99 n85 / INV_X2
XU230 n119 n109 / INV_X2
XU229 n113 n100 / INV_X2
XU104 n133 n114 / INV_X2
XU176 n54 n115 / INV_X2
XU238 n138 n123 / INV_X2
XU239 n146 n140 / INV_X2
XU71 B[23] n25 / INV_X2
XU247 n170 n149 / INV_X2
XU220 n87 n76 / INV_X2
XU70 A[23] n24 / INV_X2
XU21 n31 n8 / INV_X2
XU152 n195 n45 / INV_X2
XU271 n238 n237 / INV_X2
XU94 n37 n171 / INV_X2
XU254 n189 n188 n154 / NAND_X2
XU264 n214 n215 n169 / NAND_X2
XU53 n250 n249 n17 / NAND_X2
XU149 n169 n17 n190 / NAND_X2
XU90 n233 n35 n34 / NAND_X2
XU268 n221 n222 n220 / NAND_X2
XU269 n223 n224 n222 / NAND_X2
XU14 n5 n34 n4 / NAND_X2
XU7 n205 n206 n212 / NAND_X2
XU245 n165 n166 n164 / NAND_X2
XU246 n168 n160 n163 / NAND_X2
XU39 n165 n184 n183 / NAND_X2
XU251 n178 n179 n177 / NAND_X2
XU250 n177 n160 n176 / NAND_X2
XU29 n10 n130 n9 / NAND_X2
XU150 n259 n9 n46 / NAND_X2
XU275 n255 n256 n251 / NAND_X2
XU255 n192 n193 n153 / NAND_X2
XU261 n207 n208 n158 / NAND_X2
XU22 n225 n191 n201 / NAND_X2
XU138 n228 n229 n232 / NAND_X2
XU259 n198 n199 n197 / NAND_X2
XU147 n241 n242 n240 / NAND_X2
XU96 n160 n159 n53 / NAND_X2
XU243 n157 n158 n156 / NAND_X2
XU236 n244 n51 n128 / NAND_X2
XU235 n129 n128 n127 / NAND_X2
XU74 A[15] B[15] n26 / NAND_X2
XU3 n250 n249 n1 / NAND_X2
XU65 A[16] B[16] n165 / NAND_X2
XU48 A[18] B[18] n206 / NAND_X2
XU260 n206 n205 n167 / NAND_X2
XU63 B[19] A[19] n205 / NAND_X2
XU37 n167 n211 n159 / NAND_X2
XU23 n39 n80 n22 / NAND_X2
XU113 n140 n141 n139 / NAND_X2
XU19 n8 n142 n141 / NAND_X2
XU5 n33 n139 n28 / NAND_X2
XU20 n11 n143 n142 / NAND_X2
XU143 n145 n144 n143 / NAND_X2
XU35 n129 n30 n14 / NAND_X2
XU242 n156 n155 n132 / NAND_X2
XU68 n156 n155 n30 / NAND_X2
XU117 n129 n132 n42 / NAND_X2
XU51 n72 n73 n66 / NAND_X2
XU50 n71 n66 n70 / NAND_X2
XU218 n75 n74 n73 / NAND_X2
XU72 n76 n77 n74 / NAND_X2
XU73 n78 n27 n77 / NAND_X2
XU9 n30 n21 n27 / NAND_X2
XU225 n97 n98 n96 / NAND_X2
XU86 n95 n96 n94 / NAND_X2
XU111 n136 n23 n134 / NAND_X2
XU116 n134 n135 n118 / NAND_X2
XU234 n125 n126 n124 / NAND_X2
XU42 n125 n126 n15 / NAND_X2
XU146 n123 n124 n122 / NAND_X2
XU97 n226 n227 n257 / NAND_X2
XU33 n12 n13 n11 / NAND_X2
XU141 n152 n145 n150 / NAND_X2
XU45 n111 n112 n110 / NAND_X2
XU44 n111 n112 n36 / NAND_X2
XU101 n109 n110 n108 / NAND_X2
XU120 n88 n89 n87 / NAND_X2
XU121 n90 n86 n88 / NAND_X2
XU62 n85 n86 n84 / NAND_X2
XU106 n100 n101 n99 / NAND_X2
XU134 n102 n103 n90 / NAND_X2
XU112 n101 n104 n102 / NAND_X2
XU103 n114 n115 n113 / NAND_X2
XU128 n116 n117 n104 / NAND_X2
XU115 n118 n115 n116 / NAND_X2
XU69 n24 n25 n23 / NAND_X2
XU110 n72 n73 n40 / NAND_X2
XU52 n30 n48 n16 / NAND_X2
XU49 n100 n16 n112 / NAND_X2
XU47 n114 n16 n126 / NAND_X2
XU135 B[22] A[22] n137 / NAND_X2
XU93 n174 n173 n37 / NAND_X2
XU108 n43 n41 n188 / NOR_X1
XU88 B[17] A[17] n43 / NOR_X1
XU139 n29 n190 n189 / NOR_X1
XU201 n29 n210 n207 / NOR_X1
XU207 n210 n209 n225 / NOR_X1
XU197 n204 n167 n203 / NOR_X1
XU200 n7 n201 n200 / NOR_X1
XU148 n204 n247 n241 / NOR_X1
XU132 n245 n246 n243 / NOR_X1
XU204 B[17] A[17] n209 / NOR_X1
XU64 n219 n220 n216 / NOR_X1
XU155 A[15] B[15] n58 / NOR_X1
XU98 n87 n81 n38 / NOR_X1
XU31 n149 n19 n148 / NOR_X1
XU156 A[26] B[26] n56 / NOR_X1
XU154 A[24] B[24] n54 / NOR_X1
XU131 n239 n240 n236 / NOR_X1
XU87 n236 n237 SUM[18] / NOR_X1
XU125 n173 n174 n172 / NOR_X1
XU140 n161 n162 n155 / NOR_X2
XU244 n163 n164 n162 / NOR_X2
XU38 n182 n183 n181 / NOR_X2
XU249 n175 n176 n173 / NOR_X2
XU252 n180 n181 n179 / NOR_X2
XU8 n165 n245 n247 / NOR_X2
XU173 n52 n154 n51 / NOR_X2
XU77 B[19] A[19] n29 / NOR_X2
XU85 A[16] B[16] n41 / NOR_X2
XU266 n216 n217 SUM[19] / NOR_X2
XU82 n31 n140 n32 / NOR_X2
XU216 B[29] n63 n60 / NOR_X2
XU214 n60 n61 SUM[29] / NOR_X2
XU126 n71 n40 n68 / NOR_X2
XU129 n68 n69 SUM[28] / NOR_X2
XU224 n95 n96 n92 / NOR_X2
XU222 n92 n93 SUM[26] / NOR_X2
XU233 n123 n15 n120 / NOR_X2
XU231 n120 n121 SUM[24] / NOR_X2
XU240 n147 n148 SUM[22] / NOR_X2
XU102 n109 n36 n106 / NOR_X2
XU227 n106 n107 SUM[25] / NOR_X2
XU190 A[28] B[28] n59 / NOR_X2
XU186 A[27] B[27] n57 / NOR_X2
XU177 A[25] B[25] n55 / NOR_X2
XU258 n196 n197 n194 / NOR_X2
XU151 n194 n45 SUM[20] / NOR_X2
XU248 n171 n172 SUM[21] / NOR_X2
XU79 n1 n232 n231 / NAND_X1
XU81 n234 n165 n233 / NAND_X1
XU123 n153 n3 n161 / NAND_X1
XU114 n186 n187 n185 / NAND_X1
XU66 n260 n187 n259 / NAND_X1
XU24 n252 n251 SUM[17] / NAND_X1
XU58 n253 n254 n252 / NAND_X1
XU196 n206 n2 n248 / NAND_X1
XU164 n200 n187 n199 / NAND_X1
XU163 n178 n202 n198 / NAND_X1
XU208 n203 n50 n202 / NAND_X1
XU10 n243 n244 n242 / NAND_X1
XU159 n234 n18 n255 / NAND_X1
XU26 n257 n49 n254 / NAND_X1
XU27 n26 n50 n49 / NAND_X1
XU194 n205 n211 n235 / NAND_X1
XU46 n165 n257 n261 / NAND_X1
XU165 n160 n3 n213 / NAND_X1
XU205 A[17] B[17] n234 / NAND_X1
XU13 n214 n215 n3 / NAND_X1
XU175 B[21] A[21] n129 / NAND_X1
XU202 B[20] A[20] n160 / NAND_X1
XU92 B[17] A[17] n168 / NAND_X1
XU160 n159 n158 n178 / NAND_X1
XU206 n51 n224 n145 / NAND_X1
XU162 n153 n129 n174 / NAND_X1
XU89 n219 n220 n218 / NAND_X1
XU28 A[15] B[15] n130 / NAND_X1
XU195 n130 n131 n262 / NAND_X1
XU100 n76 n83 n82 / NAND_X1
XU43 n81 n82 n80 / NAND_X1
XU99 n83 n38 n39 / NAND_X1
XU83 n142 n32 n33 / NAND_X1
XU192 B[29] n63 n62 / NAND_X1
XU211 n85 n47 n98 / NAND_X1
XU55 n152 n145 n19 / NAND_X1
XU2 n149 n150 n151 / NAND_X1
XU188 n67 n64 n79 / NAND_X1
XU210 n67 n40 n65 / NAND_X1
XU179 n64 n65 n63 / NAND_X1
XU171 n75 n72 n91 / NAND_X1
XU168 n86 n89 n105 / NAND_X1
XU166 n101 n103 n119 / NAND_X1
XU25 n23 n11 n133 / NAND_X1
XU170 n115 n117 n138 / NAND_X1
XU182 B[23] n20 n135 / NAND_X1
XU167 n23 n135 n146 / NAND_X1
XU169 n11 n8 n170 / NAND_X1
XU189 B[28] A[28] n64 / NAND_X1
XU185 B[27] A[27] n72 / NAND_X1
XU184 B[25] A[25] n103 / NAND_X1
XU183 B[24] A[24] n117 / NAND_X1
XU181 B[26] A[26] n89 / NAND_X1
XU212 n78 n47 n83 / NAND_X1
XU75 n30 n48 n47 / NAND_X1
XU157 n196 n197 n195 / NAND_X1
XU60 n239 n240 n238 / NAND_X1
XU199 n206 n230 / INV_X1
XU136 n201 n223 / INV_X1
XU130 n168 n182 / INV_X1
XU198 n167 n184 / INV_X1
XU122 n3 n180 / INV_X1
XU213 n154 n186 / INV_X1
XU124 n130 n224 / INV_X1
XU118 n41 n191 / INV_X1
XU11 n210 n2 / INV_X1
XU144 A[17] n228 / INV_X1
XU145 B[17] n229 / INV_X1
XU17 n29 n6 / INV_X1
XU54 n245 n18 / INV_X1
XU209 n165 n258 / INV_X1
XU153 n153 n52 / INV_X1
XU203 B[20] n215 / INV_X1
XU142 n234 n204 / INV_X1
XU40 n26 n187 / INV_X1
XU41 n58 n131 / INV_X1
XU57 n127 n21 / INV_X1
XU107 n90 n97 / INV_X1
XU119 A[16] n226 / INV_X1
XU67 B[16] n227 / INV_X1
XU32 B[22] n13 / INV_X1
XU56 n24 n20 / INV_X1
XU109 n104 n111 / INV_X1
XU127 n118 n125 / INV_X1
XU80 n137 n31 / INV_X1
.ENDS

************************************************************************
* Library Name: Homwork3
* Cell Name:    MAD32_DW02_mult_0
* View Name:    schematic
************************************************************************

.SUBCKT MAD32_DW02_mult_0 A[15] A[14] A[13] A[12] A[11] A[10] A[9] A[8] A[7] 
+ A[6] A[5] A[4] A[3] A[2] A[1] A[0] B[15] B[14] B[13] B[12] B[11] B[10] B[9] 
+ B[8] B[7] B[6] B[5] B[4] B[3] B[2] B[1] B[0] PRODUCT[31] PRODUCT[30] 
+ PRODUCT[29] PRODUCT[28] PRODUCT[27] PRODUCT[26] PRODUCT[25] PRODUCT[24] 
+ PRODUCT[23] PRODUCT[22] PRODUCT[21] PRODUCT[20] PRODUCT[19] PRODUCT[18] 
+ PRODUCT[17] PRODUCT[16] PRODUCT[15] PRODUCT[14] PRODUCT[13] PRODUCT[12] 
+ PRODUCT[11] PRODUCT[10] PRODUCT[9] PRODUCT[8] PRODUCT[7] PRODUCT[6] 
+ PRODUCT[5] PRODUCT[4] PRODUCT[3] PRODUCT[2] PRODUCT[1] PRODUCT[0] TC
*.PININFO A[15]:I A[14]:I A[13]:I A[12]:I A[11]:I A[10]:I A[9]:I A[8]:I A[7]:I 
*.PININFO A[6]:I A[5]:I A[4]:I A[3]:I A[2]:I A[1]:I A[0]:I B[15]:I B[14]:I 
*.PININFO B[13]:I B[12]:I B[11]:I B[10]:I B[9]:I B[8]:I B[7]:I B[6]:I B[5]:I 
*.PININFO B[4]:I B[3]:I B[2]:I B[1]:I B[0]:I TC:I PRODUCT[31]:O PRODUCT[30]:O 
*.PININFO PRODUCT[29]:O PRODUCT[28]:O PRODUCT[27]:O PRODUCT[26]:O 
*.PININFO PRODUCT[25]:O PRODUCT[24]:O PRODUCT[23]:O PRODUCT[22]:O 
*.PININFO PRODUCT[21]:O PRODUCT[20]:O PRODUCT[19]:O PRODUCT[18]:O 
*.PININFO PRODUCT[17]:O PRODUCT[16]:O PRODUCT[15]:O PRODUCT[14]:O 
*.PININFO PRODUCT[13]:O PRODUCT[12]:O PRODUCT[11]:O PRODUCT[10]:O PRODUCT[9]:O 
*.PININFO PRODUCT[8]:O PRODUCT[7]:O PRODUCT[6]:O PRODUCT[5]:O PRODUCT[4]:O 
*.PININFO PRODUCT[3]:O PRODUCT[2]:O PRODUCT[1]:O PRODUCT[0]:O
XU4796 n9954 n9955 n9956 / NAND_X2
XU4389 n8779 n8780 n8782 / NAND_X2
XU4387 n8768 n8769 n8785 / NAND_X2
XU2347 n8764 n8766 n9031 / NAND_X2
XU939 n8506 n8505 n8507 / NAND_X2
XU4306 n8508 n8507 n8783 / NAND_X2
XU4290 n8483 n8482 n8484 / NAND_X2
XU1662 n8523 n8522 n8764 / NAND_X2
XU1663 n5841 n6585 n8522 / NAND_X2
XU4289 n8479 n8480 n8771 / NAND_X2
XU1559 n8510 n8476 n8480 / NAND_X2
XU937 n8473 n8472 n6521 / NAND_X2
XU938 n8267 n6296 n8472 / NAND_X2
XU1448 n6296 n6293 n6295 / NAND_X2
XU4221 n8265 n8264 n8501 / NAND_X2
XU4220 n8259 n8260 n8500 / NAND_X2
XU4390 n8782 n8785 n8781 / NAND_X2
XU2169 n8225 n8266 n8473 / NAND_X2
XU4222 n8500 n8501 n8770 / NAND_X2
XU4288 n8474 n6521 n8509 / NAND_X2
XU1916 n8513 n8473 n6482 / NAND_X2
XU4287 n8744 n8470 n8521 / NAND_X2
XU4394 n8802 n8801 n9047 / NAND_X2
XU905 n4160 n8805 n9041 / NAND_X2
XU4299 n8494 n8493 n8788 / NAND_X2
XU2378 B[7] n8492 n8493 / NAND_X2
XU838 n3805 n9969 n8492 / NAND_X2
XU4298 n8491 B[6] n8494 / NAND_X2
XU4478 n4439 n9044 n4729 / NAND_X2
XU4123 n7950 n7949 n7951 / NAND_X2
XU4122 n7948 n7947 n7949 / NAND_X2
XU1366 n7934 n7933 n7935 / NAND_X2
XU942 n7936 n7935 n7950 / NAND_X2
XU4050 n7724 n7723 n7726 / NAND_X2
XU4302 n8496 n8798 n4129 / NAND_X2
XU1185 A[0] A[1] n6189 / NAND_X2
XU4254 n8373 B[6] n10025 / NAND_X2
XU4115 n7913 n7912 n7939 / NAND_X2
XU1238 n7910 n7911 n7913 / NAND_X2
XU1800 n7918 n7933 n7928 / NAND_X2
XU4113 n7908 n7967 n7940 / NAND_X2
XU4210 n8235 n8234 n8233 / NAND_X2
XU4052 n7728 n7727 n7914 / NAND_X2
XU490 n5950 n7904 n7727 / NAND_X2
XU4116 n7939 n7942 n7937 / NAND_X2
XU435 n7810 n6052 n8083 / NAND_X2
XU193 B[9] n8088 n6051 / NAND_X2
XU4154 n8084 n8083 n8092 / NAND_X2
XU4157 n8098 n8097 n8363 / NAND_X2
XU4155 n8089 n8090 n8091 / NAND_X2
XU1630 n8095 n8096 n8097 / NAND_X2
XU4162 n8102 n6567 n8382 / NAND_X2
XU953 A[1] B[8] n6124 / NAND_X2
XU1602 B[9] A[0] n6368 / NAND_X2
XU4161 n6124 n6369 n8102 / NAND_X2
XU489 n6037 n6365 n6364 / NAND_X2
XU1582 n7448 n7449 n7453 / NAND_X2
XU1726 n7435 n7434 n7444 / NAND_X2
XU4075 B[9] A[1] n7808 / NAND_X2
XU4076 n7809 n7808 n7811 / NAND_X2
XU2086 B[13] A[2] n7014 / NAND_X2
XU4078 n5982 n8082 n8093 / NAND_X2
XU2324 A[0] A[1] n6676 / NAND_X2
XU1929 n7453 n7452 n7454 / NAND_X2
XU1944 B[8] A[2] n7806 / NAND_X2
XU4079 n7813 n8078 n8118 / NAND_X2
XU445 n8080 n8079 n8361 / NAND_X2
XU2309 B[10] A[0] n7807 / NAND_X2
XU4077 n7810 B[9] n8082 / NAND_X2
XU2111 n7420 n7419 n7446 / NAND_X2
XU1578 A[0] n7785 n7786 / NAND_X2
XU3463 B[11] A[0] n7787 / NAND_X2
XU956 n6126 n6127 n6125 / NAND_X2
XU2117 n6501 n6125 n7329 / NAND_X2
XU1957 B[12] A[1] n6500 / NAND_X2
XU992 A[0] B[13] n6140 / NAND_X2
XU1830 n4698 n10038 n9319 / NAND_X2
XU1563 n5333 n5332 n5677 / NAND_X2
XU4675 n9513 n9512 n5373 / NAND_X2
XU4605 n9343 n9505 n9999 / NAND_X2
XU4603 n9342 n9506 n9343 / NAND_X2
XU2376 n9499 n9496 n9342 / NAND_X2
XU4600 n9489 n9341 n9506 / NAND_X2
XU4482 n9326 n9329 n9057 / NAND_X2
XU4486 n9057 n9336 n9058 / NAND_X2
XU4489 n9058 n9335 n9140 / NAND_X2
XU1566 n9911 n9907 n9895 / NAND_X2
XU1008 n4696 n4697 n4698 / NAND_X2
XU4488 n9332 n9325 n9335 / NAND_X2
XU909 n9727 n9726 n9728 / NAND_X2
XU438 n10002 n10001 n10003 / NAND_X2
XU4611 n9347 n9346 n9578 / NAND_X2
XU4523 n9156 n9155 n9158 / NAND_X2
XU1398 n9146 n9145 n9156 / NAND_X2
XU1429 n9144 n9143 n9146 / NAND_X2
XU4522 n9154 n9153 n9155 / NAND_X2
XU4521 n9152 n9151 n9153 / NAND_X2
XU1985 n4696 n4697 n4701 / NAND_X2
XU4444 n10018 n8950 n9147 / NAND_X2
XU1009 n10153 n4408 n4696 / NAND_X2
XU697 n9890 n9746 n9878 / NAND_X2
XU837 n5366 n5364 n5100 / NAND_X2
XU906 n5100 n5373 n9566 / NAND_X2
XU4695 n5372 n9566 n9717 / NAND_X2
XU1695 n10006 n10005 n10007 / NAND_X2
XU1922 n9159 n6099 n10019 / NAND_X2
XU4440 n8947 n8946 n8948 / NAND_X2
XU4439 n8945 n8944 n8947 / NAND_X2
XU4441 n8949 n8948 n9149 / NAND_X2
XU4337 n8603 n8604 n8943 / NAND_X2
XU4330 n8588 n8589 n8605 / NAND_X2
XU1007 n10129 n10135 n5372 / NAND_X2
XU1829 n5359 n4996 n5366 / NAND_X2
XU4589 n9318 n9317 n10004 / NAND_X2
XU4588 n9315 n10020 n9318 / NAND_X2
XU1921 n6524 n10019 n10008 / NAND_X2
XU1214 n9316 n9314 n10010 / NAND_X2
XU1215 n9157 n9158 n9314 / NAND_X2
XU1590 n6360 n6357 n6359 / NAND_X2
XU1200 n9154 n9143 n8951 / NAND_X2
XU4447 n9144 n8951 n9129 / NAND_X2
XU4446 n9148 n9150 n9143 / NAND_X2
XU1919 n9704 n9705 n9706 / NAND_X2
XU1631 n6016 n9701 n9703 / NAND_X2
XU1676 n9703 n9702 n9705 / NAND_X2
XU4691 n9556 n9555 n9558 / NAND_X2
XU1442 n9554 n9533 n6287 / NAND_X2
XU1118 n6288 n6289 n9555 / NAND_X2
XU1831 n9875 n9748 n9866 / NAND_X2
XU1124 n9724 n9723 n9879 / NAND_X2
XU1828 n9713 n9712 n9714 / NAND_X2
XU4448 n8954 n8953 n9166 / NAND_X2
XU2023 n9860 n9750 n9854 / NAND_X2
XU1920 n9749 n9866 n9750 / NAND_X2
XU1212 n9709 n9708 n9749 / NAND_X2
XU4693 n9562 n9561 n9563 / NAND_X2
XU1594 n9560 n9559 n9561 / NAND_X2
XU1361 n9720 n9716 n6256 / NAND_X2
XU1161 n9583 n9710 n9716 / NAND_X2
XU1632 n9576 n9575 n9581 / NAND_X2
XU1633 n9572 n9571 n9576 / NAND_X2
XU1051 n9570 n9573 n9572 / NAND_X2
XU4614 n9349 n9577 n9554 / NAND_X2
XU4586 n9313 n9312 n9568 / NAND_X2
XU860 n6361 n9311 n9312 / NAND_X2
XU4584 n9307 n9306 n9309 / NAND_X2
XU859 n9304 n9305 n9306 / NAND_X2
XU4515 n9139 n9138 n9302 / NAND_X2
XU4513 n9133 n9132 n9135 / NAND_X2
XU4512 n9131 n9130 n9132 / NAND_X2
XU195 n8939 n8938 n9136 / NAND_X2
XU4702 n9704 n9584 n9690 / NAND_X2
XU629 n9565 n9564 n6026 / NAND_X2
XU1547 n9569 n9568 n9573 / NAND_X2
XU4526 n9308 n9305 n9160 / NAND_X2
XU4527 n9303 n9160 n9161 / NAND_X2
XU4698 n9581 n9580 n9710 / NAND_X2
XU767 n9302 n6361 n9162 / NAND_X2
XU4729 n9684 n9951 n9811 / NAND_X2
XU2269 n9683 n9682 n9951 / NAND_X2
XU1754 n9675 n9674 n9954 / NAND_X2
XU1654 n9676 n6387 n6386 / NAND_X2
XU4722 n9657 n9656 n9661 / NAND_X2
XU1415 n5912 n9643 n9649 / NAND_X2
XU4721 n9646 n9653 n9647 / NAND_X2
XU630 n9662 n6022 n9663 / NAND_X2
XU1870 n9796 n9639 n9670 / NAND_X2
XU4712 n9635 n9633 n9772 / NAND_X2
XU1981 n9616 n6580 n6511 / NAND_X2
XU3501 n9605 n6705 n6704 / NAND_X2
XU4647 n9609 n9399 n9400 / NAND_X2
XU4648 n9401 n9400 n9402 / NAND_X2
XU4653 n9425 n5836 n9622 / NAND_X2
XU1082 n9615 n9423 n9645 / NAND_X2
XU4649 n5836 n9405 n9423 / NAND_X2
XU4635 n9612 n9396 n9605 / NAND_X2
XU4655 n9644 n9645 n9658 / NAND_X2
XU306 n9653 n9641 n9434 / NAND_X2
XU631 n9811 n6025 n6024 / NAND_X2
XU2274 n9809 n9819 n9810 / NAND_X2
XU2292 n9821 n9805 n9809 / NAND_X2
XU2293 n9792 n9806 n9805 / NAND_X2
XU187 n9798 n9797 n9800 / NAND_X2
XU4715 n9625 n9624 n9793 / NAND_X2
XU2288 n9622 n9623 n9624 / NAND_X2
XU4714 n9619 n9618 n9621 / NAND_X2
XU2289 n9617 n9616 n9618 / NAND_X2
XU4710 n9611 n9610 n9635 / NAND_X2
XU4709 n9606 n9607 n9611 / NAND_X2
XU2341 n9671 n9670 n6672 / NAND_X2
XU4725 n9794 n9801 n9671 / NAND_X2
XU625 n9661 n9660 n6022 / NAND_X2
XU4654 n9614 n9622 n9644 / NAND_X2
XU4652 n9421 n9422 n9615 / NAND_X2
XU2275 n9787 n9826 n9807 / NAND_X2
XU1223 n9789 n9788 n9790 / NAND_X2
XU1222 n9791 n9790 n9806 / NAND_X2
XU402 n9807 n9806 n9815 / NAND_X2
XU2294 n9764 n9763 n9788 / NAND_X2
XU2020 n9770 n9769 n9786 / NAND_X2
XU1198 n9695 n9694 n9698 / NAND_X2
XU1199 n9689 n9688 n9695 / NAND_X2
XU548 n9552 n6469 n9686 / NAND_X2
XU547 n9687 n9686 n9689 / NAND_X2
XU2250 n9547 n9548 n9552 / NAND_X2
XU4629 n9550 n9374 n9547 / NAND_X2
XU4687 n9546 n9545 n9548 / NAND_X2
XU1127 n9542 n9541 n9543 / NAND_X2
XU1119 n9539 n9375 n9378 / NAND_X2
XU1083 n9544 n9543 n9546 / NAND_X2
XU800 n9588 n9395 n9398 / NAND_X2
XU2022 n9857 n5904 n9979 / NAND_X2
XU2308 n9698 n9697 n9850 / NAND_X2
XU4707 n9600 n9754 n9601 / NAND_X2
XU794 n6074 n6075 n9595 / NAND_X2
XU4690 n9688 n9691 n9585 / NAND_X2
XU4705 n9596 n9595 n9840 / NAND_X2
XU2011 n9839 n9756 n9837 / NAND_X2
XU4620 n9537 n9361 n9375 / NAND_X2
XU2307 n9786 n9788 n9826 / NAND_X2
XU284 n9698 n9697 n5904 / NAND_X2
XU133 n9693 n9685 n9597 / NAND_X2
XU4688 n9551 n9552 n9685 / NAND_X2
XU4704 n9598 n9597 n9841 / NAND_X2
XU390 n9759 n9841 n9602 / NAND_X2
XU2273 n9778 n9777 n9779 / NAND_X2
XU2132 n9775 n9774 n9778 / NAND_X2
XU2194 n7216 n7215 n2151 / NAND_X2
XU2195 n7210 n7209 n7216 / NAND_X2
XU2186 n9785 n9784 n9825 / NAND_X2
XU1220 n9772 n9632 n9669 / NAND_X2
XU4708 n9602 n9601 n9782 / NAND_X2
XU388 n9602 n9601 n5957 / NAND_X2
XU71 n6061 n6477 n5954 / NAND_X2
XU620 n7222 n7223 n7196 / NAND_X2
XU2193 n7199 n7195 n7211 / NAND_X2
XU892 n7194 n7197 n7195 / NAND_X2
XU1534 n6967 n7169 n7190 / NAND_X2
XU1275 n7173 n7167 n6967 / NAND_X2
XU1868 n9668 n9669 n9801 / NAND_X2
XU2196 n7193 n7192 n7197 / NAND_X2
XU1216 n7192 n7191 n6973 / NAND_X2
XU4683 n9527 n9528 n9529 / NAND_X2
XU4723 n9663 n5954 n9665 / NAND_X2
XU4724 n9665 n6112 n9664 / NAND_X2
XU2139 A[2] n7018 n7026 / NAND_X2
XU2310 B[14] A[0] n7018 / NAND_X2
XU1307 n7031 B[13] n7032 / NAND_X2
XU1574 n7032 n7033 n7035 / NAND_X2
XU3794 n6914 n7069 n6915 / NAND_X2
XU2296 n6723 n6522 n7057 / NAND_X2
XU1535 n6917 n6430 n6429 / NAND_X2
XU1171 n6750 n10042 n6783 / NAND_X2
XU3759 n6799 n6798 n6882 / NAND_X2
XU1797 n6693 n6797 n6798 / NAND_X2
XU1879 B[14] n6929 n6917 / NAND_X2
XU2215 B[13] B[12] n7022 / NAND_X2
XU2311 B[13] A[1] n7019 / NAND_X2
XU1365 B[14] A[0] n6259 / NAND_X2
XU2235 B[14] B[15] n6746 / NAND_X2
XU4681 n9522 n9523 n9528 / NAND_X2
XU4679 n9517 n9520 n9519 / NAND_X2
XU4677 n6298 n9525 n9517 / NAND_X2
XU4680 n9518 n9519 n9523 / NAND_X2
XU4678 n6113 n6066 n9520 / NAND_X2
XU4663 n9468 n9469 n9472 / NAND_X2
XU1041 n9002 n6268 n9003 / NAND_X2
XU413 n8858 n8857 n9002 / NAND_X2
XU964 n9067 n8822 n6129 / NAND_X2
XU2046 n8827 n8828 n8831 / NAND_X2
XU2048 n9463 n9462 n9464 / NAND_X2
XU1860 n9243 n9443 n6467 / NAND_X2
XU4561 n9443 n9462 n9458 / NAND_X2
XU4560 n6484 n5935 n9462 / NAND_X2
XU1536 n9450 n9430 n6484 / NAND_X2
XU2219 n9069 n9070 n9078 / NAND_X2
XU2220 n9067 n9068 n9070 / NAND_X2
XU1520 n6328 n6329 n9074 / NAND_X2
XU4492 n9075 n9074 n9077 / NAND_X2
XU1399 n9071 n9072 n9075 / NAND_X2
XU4464 n9436 n9001 n9072 / NAND_X2
XU1951 n9000 n6568 n9001 / NAND_X2
XU1433 n8849 n8850 n9004 / NAND_X2
XU2180 n9438 n5863 n9000 / NAND_X2
XU721 n8842 n8841 n8851 / NAND_X2
XU1542 n8860 n6436 n8839 / NAND_X2
XU4410 n8861 n8862 n8863 / NAND_X2
XU4411 n8864 n8863 n8866 / NAND_X2
XU747 n9471 n9472 n9515 / NAND_X2
XU4661 n9460 n9458 n9459 / NAND_X2
XU192 n9081 n9080 n9466 / NAND_X2
XU2177 n6562 n9079 n9080 / NAND_X2
XU2122 n6339 n9066 n9068 / NAND_X2
XU1537 n8846 n8847 n6339 / NAND_X2
XU1031 n8732 n6330 n8841 / NAND_X2
XU889 n8706 n8707 n8713 / NAND_X2
XU4405 n8845 n5942 n9067 / NAND_X2
XU358 n5921 n8841 n5942 / NAND_X2
XU155 n5921 n8841 n8844 / NAND_X2
XU2243 n8713 n6043 n8859 / NAND_X2
XU4665 n9477 n9478 n5809 / NAND_X2
XU2339 n9475 n9950 n9478 / NAND_X2
XU1502 A[0] n6726 n6901 / NAND_X2
XU1844 A[1] n6378 n6902 / NAND_X2
XU1810 A[0] n6730 n6906 / NAND_X2
XU1242 B[14] n6249 n9965 / NAND_X2
XU1033 A[1] n6426 n6905 / NAND_X2
XU1731 n6723 n6731 n9969 / NAND_X2
XU1258 B[15] n6725 n9966 / NAND_X2
XU4658 n9450 n6569 n9428 / NAND_X2
XU4207 n8229 n8256 n8242 / NAND_X2
XU1173 n6190 n8517 n6187 / NAND_X2
XU2318 n6190 n8517 n8261 / NAND_X2
XU4133 n7980 n7979 n8228 / NAND_X2
XU2278 n7970 n7977 n7971 / NAND_X2
XU621 n7977 n7978 n7979 / NAND_X2
XU4109 n7897 n7896 n7975 / NAND_X2
XU4205 n8224 n8223 n8266 / NAND_X2
XU1137 n8217 n8218 n8224 / NAND_X2
XU1838 n8456 n8466 n8267 / NAND_X2
XU3912 n7269 n7268 n7406 / NAND_X2
XU3911 n7267 n7266 n7268 / NAND_X2
XU3969 n7404 n7403 n7455 / NAND_X2
XU1061 n7673 n6165 n7677 / NAND_X2
XU714 n6373 n7675 n7676 / NAND_X2
XU4037 n7677 n7676 n7680 / NAND_X2
XU4108 n7894 n7895 n7896 / NAND_X2
XU4107 n7891 n7890 n7895 / NAND_X2
XU2208 n7899 n7898 n7977 / NAND_X2
XU2209 n8219 n7972 n7898 / NAND_X2
XU2100 n8220 n7881 n7972 / NAND_X2
XU4100 n8213 n7876 n7881 / NAND_X2
XU3991 n7463 n7462 n7887 / NAND_X2
XU1925 n7688 n6036 n7886 / NAND_X2
XU1626 n7408 n6089 n7693 / NAND_X2
XU4043 n7686 n7687 n8207 / NAND_X2
XU4041 n7685 n7684 n8206 / NAND_X2
XU4040 n7682 n7683 n7685 / NAND_X2
XU4039 n7678 n7679 n7683 / NAND_X2
XU1501 n7900 n7977 n7961 / NAND_X2
XU2351 n7887 n7888 n7892 / NAND_X2
XU3913 n7270 n7405 n7459 / NAND_X2
XU4103 n8208 n7877 n8211 / NAND_X2
XU4104 n7880 n8211 n8220 / NAND_X2
XU1711 n7973 n8219 n6635 / NAND_X2
XU4099 n7981 n7875 n8215 / NAND_X2
XU4101 n8206 n8207 n7878 / NAND_X2
XU1643 n9416 n9418 n9411 / NAND_X2
XU4558 n9409 n9240 n9407 / NAND_X2
XU1328 n9416 n9408 n9233 / NAND_X2
XU4454 n8964 n6398 n8997 / NAND_X2
XU4417 n8881 n8882 n8964 / NAND_X2
XU2156 n9091 n6598 n6593 / NAND_X2
XU570 n8993 n8871 n6598 / NAND_X2
XU4459 n8995 n8996 n8999 / NAND_X2
XU3575 n9099 n9098 n9101 / NAND_X2
XU2163 n8871 n9097 n6651 / NAND_X2
XU4367 n8687 n8686 n8710 / NAND_X2
XU1070 n5996 n8711 n6308 / NAND_X2
XU3563 n6722 n8708 n6721 / NAND_X2
XU1543 n8688 n8710 n8701 / NAND_X2
XU2109 n6611 n8703 n6570 / NAND_X2
XU4370 n8699 n8703 n8708 / NAND_X2
XU4651 n9409 n9410 n9417 / NAND_X2
XU1022 n9419 n9420 n9421 / NAND_X2
XU4556 n9227 n9226 n9406 / NAND_X2
XU137 n9238 n9239 n9409 / NAND_X2
XU4502 n9109 n9110 n9228 / NAND_X2
XU2233 n9232 n9231 n9408 / NAND_X2
XU4361 n8877 n8674 n8989 / NAND_X2
XU785 n6085 n6325 n8871 / NAND_X2
XU1018 n9409 n9410 n6147 / NAND_X2
XU4501 n9235 n9237 n9229 / NAND_X2
XU4461 n8998 n8997 n9106 / NAND_X2
XU458 n5926 n9101 n9236 / NAND_X2
XU886 n6325 n9096 n9100 / NAND_X2
XU414 n8990 n9094 n6043 / NAND_X2
XU4372 n8712 n6308 n8872 / NAND_X2
XU784 n8712 n6308 n6483 / NAND_X2
XU4510 n9127 n9126 n9382 / NAND_X2
XU2287 n9388 n9387 n9390 / NAND_X2
XU1431 n9386 n9385 n9388 / NAND_X2
XU1345 n9387 n9211 n9225 / NAND_X2
XU1344 n9224 n9225 n9227 / NAND_X2
XU1404 n9293 n9300 n9226 / NAND_X2
XU4546 n9202 n9203 n9364 / NAND_X2
XU4543 n9196 n9195 n9197 / NAND_X2
XU1513 n9188 n9191 n9200 / NAND_X2
XU4544 n9198 n9197 n9203 / NAND_X2
XU1979 n6671 n9121 n9112 / NAND_X2
XU4505 n9113 n9112 n9114 / NAND_X2
XU4427 n8901 n8900 n8961 / NAND_X2
XU4421 n8898 n8899 n8900 / NAND_X2
XU543 n8894 n5946 n8887 / NAND_X2
XU4633 n9389 n9390 n9391 / NAND_X2
XU1714 n9392 n9391 n9393 / NAND_X2
XU4634 n9394 n9393 n9588 / NAND_X2
XU1387 n9382 n9207 n6512 / NAND_X2
XU4624 n9366 n9367 n9369 / NAND_X2
XU4622 n9362 n9363 n9367 / NAND_X2
XU1403 n8909 n6093 n8912 / NAND_X2
XU9 n8907 n6605 n8909 / NAND_X2
XU930 n9124 n9123 n9210 / NAND_X2
XU751 n8959 n6671 n8963 / NAND_X2
XU4549 n6076 n5914 n9387 / NAND_X2
XU4541 n9371 n9362 n9204 / NAND_X2
XU733 n9200 n8956 n8958 / NAND_X2
XU1892 n9371 n9370 n9372 / NAND_X2
XU4507 n9119 n9123 n9120 / NAND_X2
XU4352 n8883 n8655 n8630 / NAND_X2
XU2325 n8906 n6141 n8655 / NAND_X2
XU970 n8910 n5960 n6141 / NAND_X2
XU4548 n9205 n9206 n9383 / NAND_X2
XU4555 n9392 n9387 n9300 / NAND_X2
XU4429 n8912 n8911 n9192 / NAND_X2
XU2367 n8955 n9166 n9188 / NAND_X2
XU1474 n9373 n9372 n6306 / NAND_X2
XU987 n9373 n9372 n9539 / NAND_X2
XU1991 n9115 n9120 n6517 / NAND_X2
XU2340 n8958 n9199 n6671 / NAND_X2
XU978 n9118 n9116 n8962 / NAND_X2
XU4453 n8960 n8961 n9116 / NAND_X2
XU129 n9357 n9184 n9368 / NAND_X2
XU4539 n9183 n9182 n9357 / NAND_X2
XU4432 n8924 n8923 n9167 / NAND_X2
XU934 n8922 n8921 n8923 / NAND_X2
XU4349 n8914 n8627 n8629 / NAND_X2
XU4348 n8913 n6220 n8627 / NAND_X2
XU4343 n8612 n8611 n8919 / NAND_X2
XU4350 n8628 n8629 n8908 / NAND_X2
XU4347 n8625 n8626 n8913 / NAND_X2
XU4344 n8617 n8616 n8621 / NAND_X2
XU1587 n8615 n8618 n8617 / NAND_X2
XU4345 n8621 n8620 n8626 / NAND_X2
XU4247 n8358 n8359 n8613 / NAND_X2
XU4173 n8129 n6077 n8354 / NAND_X2
XU4245 n8352 n8353 n8356 / NAND_X2