* File: FA.pex.sp.pex
* Created: Tue May  9 11:20:21 2023
* Program "Calibre xRC"
* Version "v2018.2_24.18"
* Nominal Temperature: 27C
* Circuit Temperature: 27C
* 
.subckt PM_FA%X21/6 1 2
c0 1 0 0.00980233f
r1 1 2 10.08
.ends

.subckt PM_FA%X22/6 1 2
r0 1 2 10.08
.ends

.subckt PM_FA%X23/6 1 2
c0 1 0 0.0204547f
r1 1 2 10.08
.ends

.subckt PM_FA%X24/6 1 2
r0 1 2 10.08
.ends

.subckt PM_FA%X25/6 1 2
c0 1 0 0.0208671f
r1 1 2 10.08
.ends

.subckt PM_FA%X26/6 1 2
r0 1 2 10.08
.ends

.subckt PM_FA%X27/6 1 2
c0 1 0 0.0194374f
r1 1 2 10.08
.ends

.subckt PM_FA%X28/6 1 2
r0 1 2 10.08
.ends

.subckt PM_FA%GND! 55 56 63 70 77 84 91 98 105 112 119 126 133 947 1120
c0 2467 0 0.047999f
c1 2466 0 0.914825f
c2 2461 0 0.948174f
c3 2458 0 0.047999f
c4 2457 0 3.77662f
c5 2452 0 1.98185f
c6 2449 0 0.0480063f
c7 2443 0 1.98185f
c8 2440 0 0.0480063f
c9 2434 0 1.98185f
c10 2431 0 0.0480063f
c11 2425 0 1.98185f
c12 2422 0 0.047999f
c13 2421 0 4.55252f
c14 2416 0 1.98185f
c15 2413 0 0.0480063f
c16 2407 0 1.98185f
c17 2404 0 0.047999f
c18 2403 0 3.88664f
c19 2398 0 1.98185f
c20 2395 0 0.0480063f
c21 2389 0 1.98185f
c22 2386 0 0.0480063f
c23 2380 0 1.98185f
c24 2377 0 0.0480063f
c25 2371 0 1.98185f
c26 2368 0 0.0480063f
c27 2361 0 0.948174f
c28 2356 0 1.76948f
c29 2347 0 7.76947f
c30 2311 0 8.21119f
c31 2293 0 7.72906f
c32 2246 0 1.76948f
c33 2237 0 7.76939f
c34 2201 0 8.21116f
c35 2183 0 7.72899f
c36 2136 0 1.76948f
c37 2127 0 7.76939f
c38 2091 0 8.21116f
c39 2073 0 7.72899f
c40 2026 0 1.76948f
c41 2021 0 4.19028f
c42 2017 0 7.76939f
c43 2012 0 8.72263f
c44 2003 0 8.72263f
c45 1994 0 8.72263f
c46 1985 0 8.72263f
c47 1981 0 8.21116f
c48 1976 0 8.72263f
c49 1967 0 8.72263f
c50 1963 0 7.72899f
c51 1958 0 8.72263f
c52 1949 0 8.72263f
c53 1940 0 8.72263f
c54 1931 0 8.72263f
c55 1921 0 4.19028f
c56 1916 0 1.76948f
c57 1907 0 7.76947f
c58 1871 0 8.21119f
c59 1853 0 7.72906f
c60 1806 0 1.76948f
c61 1801 0 4.78213f
c62 1797 0 7.76939f
c63 1792 0 8.84743f
c64 1783 0 8.84743f
c65 1774 0 8.84743f
c66 1765 0 8.84743f
c67 1761 0 8.55287f
c68 1756 0 8.84743f
c69 1747 0 9.50676f
c70 1743 0 7.72899f
c71 1738 0 9.50676f
c72 1729 0 9.50676f
c73 1720 0 9.50612f
c74 1711 0 9.52188f
c75 1701 0 5.46616f
c76 1696 0 1.76948f
c77 1687 0 7.76947f
c78 1651 0 8.48199f
c79 1633 0 7.72906f
c80 1586 0 1.76948f
c81 1577 0 7.76939f
c82 1541 0 8.48195f
c83 1523 0 7.72899f
c84 1476 0 1.76948f
c85 1467 0 7.76939f
c86 1431 0 8.48353f
c87 1413 0 7.72899f
c88 1366 0 1.76948f
c89 1357 0 7.76939f
c90 1321 0 8.46999f
c91 1303 0 7.72899f
c92 1256 0 0.914828f
c93 1251 0 4.31628f
c94 1247 0 3.77654f
c95 1242 0 8.79351f
c96 1233 0 8.79352f
c97 1224 0 8.79352f
c98 1215 0 8.79352f
c99 1211 0 4.81653f
c100 1206 0 8.79351f
c101 1197 0 8.79352f
c102 1193 0 3.88656f
c103 1188 0 8.79351f
c104 1179 0 8.79352f
c105 1170 0 8.79352f
c106 1161 0 8.79352f
c107 1151 0 4.31629f
c108 1114 0 0.346421f
c109 1110 0 0.414194f
c110 1106 0 7.04029f
c111 950 0 0.12028f
c112 922 0 0.0209564f
c113 919 0 0.0357878f
c114 888 0 0.0177466f
c115 883 0 0.110576f
c116 880 0 0.0812747f
c117 866 0 0.110576f
c118 863 0 0.0812747f
c119 849 0 0.100523f
c120 846 0 0.0738928f
c121 832 0 0.100523f
c122 829 0 0.0738928f
c123 815 0 0.100523f
c124 812 0 0.0738928f
c125 798 0 0.100523f
c126 795 0 0.0738928f
c127 781 0 0.100523f
c128 778 0 0.0738928f
c129 764 0 0.100523f
c130 761 0 0.0738928f
c131 747 0 0.100523f
c132 744 0 0.0738928f
c133 730 0 0.100523f
c134 727 0 0.0738928f
c135 713 0 0.100523f
c136 710 0 0.0738928f
c137 696 0 0.100523f
c138 693 0 0.0738928f
c139 679 0 0.100523f
c140 676 0 0.0738928f
c141 662 0 0.100789f
c142 659 0 0.103693f
c143 645 0 0.100523f
c144 642 0 0.0738928f
c145 628 0 0.100789f
c146 625 0 0.103693f
c147 611 0 0.100523f
c148 608 0 0.0738928f
c149 594 0 0.100789f
c150 591 0 0.103693f
c151 577 0 0.100523f
c152 574 0 0.0738928f
c153 560 0 0.100789f
c154 557 0 0.103693f
c155 543 0 0.100523f
c156 540 0 0.0738928f
c157 526 0 0.100555f
c158 523 0 0.0831079f
c159 509 0 0.110576f
c160 506 0 0.0812747f
c161 492 0 0.110607f
c162 489 0 0.0904897f
c163 428 0 0.0177466f
c164 427 0 0.260334f
c165 426 0 0.074555f
c166 425 0 0.123589f
c167 424 0 0.0168296f
c168 423 0 0.270176f
c169 420 0 0.0347996f
c170 419 0 0.332222f
c171 417 0 0.0168296f
c172 416 0 0.243163f
c173 414 0 0.0168296f
c174 412 0 0.0248185f
c175 408 0 6.46511f
c176 347 0 0.108315f
c177 342 0 0.17021f
c178 316 0 0.193901f
c179 257 0 6.78262f
c180 201 0 6.68336f
c181 136 0 0.0767609f
c182 133 0 0.0021601f
c183 129 0 0.0680074f
c184 126 0 0.00461261f
c185 122 0 0.0861732f
c186 119 0 0.00225468f
c187 115 0 0.0889896f
c188 112 0 0.0111416f
c189 108 0 0.0762976f
c190 101 0 0.0703027f
c191 98 0 0.004614f
c192 94 0 0.0559214f
c193 87 0 0.0778392f
c194 84 0 0.0163414f
c195 80 0 0.083241f
c196 73 0 0.0840953f
c197 66 0 0.105693f
c198 63 0 0.003031f
c199 59 0 0.0858647f
r200 2466 2467 0.489796
r201 2464 2467 0.02535
r202 2463 2466 0.02535
r203 2463 2464 0.489796
r204 2461 2464 0.02535
r205 2460 2463 0.02535
r206 2460 2461 0.489796
r207 2457 2460 0.1443
r208 2457 2458 0.489796
r209 2455 2458 0.02535
r210 2454 2457 0.02535
r211 2454 2455 0.489796
r212 2452 2455 0.02535
r213 2451 2454 0.02535
r214 2451 2452 0.489796
r215 2448 2451 0.1443
r216 2448 2449 0.489796
r217 2446 2449 0.02535
r218 2445 2448 0.02535
r219 2445 2446 0.489796
r220 2443 2446 0.02535
r221 2442 2445 0.02535
r222 2442 2443 0.489796
r223 2439 2442 0.1443
r224 2439 2440 0.489796
r225 2437 2440 0.02535
r226 2436 2439 0.02535
r227 2436 2437 0.489796
r228 2434 2437 0.02535
r229 2433 2436 0.02535
r230 2433 2434 0.489796
r231 2430 2433 0.1443
r232 2430 2431 0.489796
r233 2428 2431 0.02535
r234 2427 2430 0.02535
r235 2427 2428 0.489796
r236 2425 2428 0.02535
r237 2424 2427 0.02535
r238 2424 2425 0.489796
r239 2421 2424 0.1443
r240 2421 2422 0.489796
r241 2419 2422 0.02535
r242 2418 2421 0.02535
r243 2418 2419 0.489796
r244 2416 2419 0.02535
r245 2415 2418 0.02535
r246 2415 2416 0.489796
r247 2412 2415 0.5967
r248 2412 2413 0.489796
r249 2410 2413 0.02535
r250 2409 2412 0.02535
r251 2409 2410 0.489796
r252 2407 2410 0.02535
r253 2406 2409 0.02535
r254 2406 2407 0.489796
r255 2403 2406 0.1443
r256 2403 2404 0.489796
r257 2401 2404 0.02535
r258 2400 2403 0.02535
r259 2400 2401 0.489796
r260 2398 2401 0.02535
r261 2397 2400 0.02535
r262 2397 2398 0.489796
r263 2394 2397 0.1443
r264 2394 2395 0.489796
r265 2392 2395 0.02535
r266 2391 2394 0.02535
r267 2391 2392 0.489796
r268 2389 2392 0.02535
r269 2388 2391 0.02535
r270 2388 2389 0.489796
r271 2385 2388 0.1443
r272 2385 2386 0.489796
r273 2383 2386 0.02535
r274 2382 2385 0.02535
r275 2382 2383 0.489796
r276 2380 2383 0.02535
r277 2379 2382 0.02535
r278 2379 2380 0.489796
r279 2376 2379 0.1443
r280 2376 2377 0.489796
r281 2374 2377 0.02535
r282 2373 2376 0.02535
r283 2373 2374 0.489796
r284 2371 2374 0.02535
r285 2370 2373 0.02535
r286 2370 2371 0.489796
r287 2367 2370 0.1443
r288 2367 2368 0.489796
r289 2365 2368 0.02535
r290 2364 2367 0.02535
r291 2364 2365 0.489796
r292 2361 2365 0.02535
r293 2360 2364 0.02535
r294 2360 2361 0.489796
r295 2357 2461 0.1443
r296 2356 2357 0.489796
r297 2354 2357 0.02535
r298 2353 2356 0.02535
r299 2353 2354 0.489796
r300 2351 2354 0.02535
r301 2350 2353 0.02535
r302 2350 2351 0.489796
r303 2348 2452 0.1443
r304 2347 2350 0.1443
r305 2347 2348 0.489796
r306 2345 2348 0.02535
r307 2344 2347 0.02535
r308 2344 2345 0.489796
r309 2342 2345 0.02535
r310 2341 2344 0.02535
r311 2341 2342 0.489796
r312 2339 2443 0.1443
r313 2338 2341 0.1443
r314 2338 2339 0.489796
r315 2336 2339 0.02535
r316 2335 2338 0.02535
r317 2335 2336 0.489796
r318 2333 2336 0.02535
r319 2332 2335 0.02535
r320 2332 2333 0.489796
r321 2330 2434 0.1443
r322 2329 2332 0.1443
r323 2329 2330 0.489796
r324 2327 2330 0.02535
r325 2326 2329 0.02535
r326 2326 2327 0.489796
r327 2324 2327 0.02535
r328 2323 2326 0.02535
r329 2323 2324 0.489796
r330 2321 2425 0.1443
r331 2320 2323 0.1443
r332 2320 2321 0.489796
r333 2318 2321 0.02535
r334 2317 2320 0.02535
r335 2317 2318 0.489796
r336 2315 2318 0.02535
r337 2314 2317 0.02535
r338 2314 2315 0.489796
r339 2312 2416 0.1443
r340 2311 2314 0.1443
r341 2311 2312 0.489796
r342 2309 2312 0.02535
r343 2308 2311 0.02535
r344 2308 2309 0.489796
r345 2306 2309 0.02535
r346 2305 2308 0.02535
r347 2305 2306 0.489796
r348 2303 2407 0.1443
r349 2302 2305 0.5967
r350 2302 2303 0.489796
r351 2300 2303 0.02535
r352 2299 2302 0.02535
r353 2299 2300 0.489796
r354 2297 2300 0.02535
r355 2296 2299 0.02535
r356 2296 2297 0.489796
r357 2294 2398 0.1443
r358 2293 2296 0.1443
r359 2293 2294 0.489796
r360 2291 2294 0.02535
r361 2290 2293 0.02535
r362 2290 2291 0.489796
r363 2288 2291 0.02535
r364 2287 2290 0.02535
r365 2287 2288 0.489796
r366 2285 2389 0.1443
r367 2284 2287 0.1443
r368 2284 2285 0.489796
r369 2282 2285 0.02535
r370 2281 2284 0.02535
r371 2281 2282 0.489796
r372 2279 2282 0.02535
r373 2278 2281 0.02535
r374 2278 2279 0.489796
r375 2276 2380 0.1443
r376 2275 2278 0.1443
r377 2275 2276 0.489796
r378 2273 2276 0.02535
r379 2272 2275 0.02535
r380 2272 2273 0.489796
r381 2270 2273 0.02535
r382 2269 2272 0.02535
r383 2269 2270 0.489796
r384 2267 2371 0.1443
r385 2266 2269 0.1443
r386 2266 2267 0.489796
r387 2264 2267 0.02535
r388 2263 2266 0.02535
r389 2263 2264 0.489796
r390 2261 2264 0.02535
r391 2260 2263 0.02535
r392 2260 2261 0.489796
r393 2258 2361 0.1443
r394 2257 2260 0.1443
r395 2257 2258 0.489796
r396 2255 2258 0.02535
r397 2254 2257 0.02535
r398 2254 2255 0.489796
r399 2251 2255 0.02535
r400 2250 2254 0.02535
r401 2250 2251 0.489796
r402 2247 2351 0.1443
r403 2246 2247 0.489796
r404 2244 2247 0.02535
r405 2243 2246 0.02535
r406 2243 2244 0.489796
r407 2241 2244 0.02535
r408 2240 2243 0.02535
r409 2240 2241 0.489796
r410 2238 2342 0.1443
r411 2237 2240 0.1443
r412 2237 2238 0.489796
r413 2235 2238 0.02535
r414 2234 2237 0.02535
r415 2234 2235 0.489796
r416 2232 2235 0.02535
r417 2231 2234 0.02535
r418 2231 2232 0.489796
r419 2229 2333 0.1443
r420 2228 2231 0.1443
r421 2228 2229 0.489796
r422 2226 2229 0.02535
r423 2225 2228 0.02535
r424 2225 2226 0.489796
r425 2223 2226 0.02535
r426 2222 2225 0.02535
r427 2222 2223 0.489796
r428 2220 2324 0.1443
r429 2219 2222 0.1443
r430 2219 2220 0.489796
r431 2217 2220 0.02535
r432 2216 2219 0.02535
r433 2216 2217 0.489796
r434 2214 2217 0.02535
r435 2213 2216 0.02535
r436 2213 2214 0.489796
r437 2211 2315 0.1443
r438 2210 2213 0.1443
r439 2210 2211 0.489796
r440 2208 2211 0.02535
r441 2207 2210 0.02535
r442 2207 2208 0.489796
r443 2205 2208 0.02535
r444 2204 2207 0.02535
r445 2204 2205 0.489796
r446 2202 2306 0.1443
r447 2201 2204 0.1443
r448 2201 2202 0.489796
r449 2199 2202 0.02535
r450 2198 2201 0.02535
r451 2198 2199 0.489796
r452 2196 2199 0.02535
r453 2195 2198 0.02535
r454 2195 2196 0.489796
r455 2193 2297 0.1443
r456 2192 2195 0.5967
r457 2192 2193 0.489796
r458 2190 2193 0.02535
r459 2189 2192 0.02535
r460 2189 2190 0.489796
r461 2187 2190 0.02535
r462 2186 2189 0.02535
r463 2186 2187 0.489796
r464 2184 2288 0.1443
r465 2183 2186 0.1443
r466 2183 2184 0.489796
r467 2181 2184 0.02535
r468 2180 2183 0.02535
r469 2180 2181 0.489796
r470 2178 2181 0.02535
r471 2177 2180 0.02535
r472 2177 2178 0.489796
r473 2175 2279 0.1443
r474 2174 2177 0.1443
r475 2174 2175 0.489796
r476 2172 2175 0.02535
r477 2171 2174 0.02535
r478 2171 2172 0.489796
r479 2169 2172 0.02535
r480 2168 2171 0.02535
r481 2168 2169 0.489796
r482 2166 2270 0.1443
r483 2165 2168 0.1443
r484 2165 2166 0.489796
r485 2163 2166 0.02535
r486 2162 2165 0.02535
r487 2162 2163 0.489796
r488 2160 2163 0.02535
r489 2159 2162 0.02535
r490 2159 2160 0.489796
r491 2157 2261 0.1443
r492 2156 2159 0.1443
r493 2156 2157 0.489796
r494 2154 2157 0.02535
r495 2153 2156 0.02535
r496 2153 2154 0.489796
r497 2151 2154 0.02535
r498 2150 2153 0.02535
r499 2150 2151 0.489796
r500 2148 2251 0.1443
r501 2147 2150 0.1443
r502 2147 2148 0.489796
r503 2145 2148 0.02535
r504 2144 2147 0.02535
r505 2144 2145 0.489796
r506 2141 2145 0.02535
r507 2140 2144 0.02535
r508 2140 2141 0.489796
r509 2137 2241 0.1443
r510 2136 2137 0.489796
r511 2134 2137 0.02535
r512 2133 2136 0.02535
r513 2133 2134 0.489796
r514 2131 2134 0.02535
r515 2130 2133 0.02535
r516 2130 2131 0.489796
r517 2128 2232 0.1443
r518 2127 2130 0.1443
r519 2127 2128 0.489796
r520 2125 2128 0.02535
r521 2124 2127 0.02535
r522 2124 2125 0.489796
r523 2122 2125 0.02535
r524 2121 2124 0.02535
r525 2121 2122 0.489796
r526 2119 2223 0.1443
r527 2118 2121 0.1443
r528 2118 2119 0.489796
r529 2116 2119 0.02535
r530 2115 2118 0.02535
r531 2115 2116 0.489796
r532 2113 2116 0.02535
r533 2112 2115 0.02535
r534 2112 2113 0.489796
r535 2110 2214 0.1443
r536 2109 2112 0.1443
r537 2109 2110 0.489796
r538 2107 2110 0.02535
r539 2106 2109 0.02535
r540 2106 2107 0.489796
r541 2104 2107 0.02535
r542 2103 2106 0.02535
r543 2103 2104 0.489796
r544 2101 2205 0.1443
r545 2100 2103 0.1443
r546 2100 2101 0.489796
r547 2098 2101 0.02535
r548 2097 2100 0.02535
r549 2097 2098 0.489796
r550 2095 2098 0.02535
r551 2094 2097 0.02535
r552 2094 2095 0.489796
r553 2092 2196 0.1443
r554 2091 2094 0.1443
r555 2091 2092 0.489796
r556 2089 2092 0.02535
r557 2088 2091 0.02535
r558 2088 2089 0.489796
r559 2086 2089 0.02535
r560 2085 2088 0.02535
r561 2085 2086 0.489796
r562 2083 2187 0.1443
r563 2082 2085 0.5967
r564 2082 2083 0.489796
r565 2080 2083 0.02535
r566 2079 2082 0.02535
r567 2079 2080 0.489796
r568 2077 2080 0.02535
r569 2076 2079 0.02535
r570 2076 2077 0.489796
r571 2074 2178 0.1443
r572 2073 2076 0.1443
r573 2073 2074 0.489796
r574 2071 2074 0.02535
r575 2070 2073 0.02535
r576 2070 2071 0.489796
r577 2068 2071 0.02535
r578 2067 2070 0.02535
r579 2067 2068 0.489796
r580 2065 2169 0.1443
r581 2064 2067 0.1443
r582 2064 2065 0.489796
r583 2062 2065 0.02535
r584 2061 2064 0.02535
r585 2061 2062 0.489796
r586 2059 2062 0.02535
r587 2058 2061 0.02535
r588 2058 2059 0.489796
r589 2056 2160 0.1443
r590 2055 2058 0.1443
r591 2055 2056 0.489796
r592 2053 2056 0.02535
r593 2052 2055 0.02535
r594 2052 2053 0.489796
r595 2050 2053 0.02535
r596 2049 2052 0.02535
r597 2049 2050 0.489796
r598 2047 2151 0.1443
r599 2046 2049 0.1443
r600 2046 2047 0.489796
r601 2044 2047 0.02535
r602 2043 2046 0.02535
r603 2043 2044 0.489796
r604 2041 2044 0.02535
r605 2040 2043 0.02535
r606 2040 2041 0.489796
r607 2038 2141 0.1443
r608 2037 2040 0.1443
r609 2037 2038 0.489796
r610 2035 2038 0.02535
r611 2034 2037 0.02535
r612 2034 2035 0.489796
r613 2031 2035 0.02535
r614 2030 2034 0.02535
r615 2030 2031 0.489796
r616 2027 2131 0.1443
r617 2026 2027 0.489796
r618 2024 2027 0.02535
r619 2023 2026 0.02535
r620 2023 2024 0.489796
r621 2021 2024 0.02535
r622 2020 2023 0.02535
r623 2020 2021 0.489796
r624 2018 2122 0.1443
r625 2017 2020 0.1443
r626 2017 2018 0.489796
r627 2015 2018 0.02535
r628 2014 2017 0.02535
r629 2014 2015 0.489796
r630 2012 2015 0.02535
r631 2011 2014 0.02535
r632 2011 2012 0.489796
r633 2009 2113 0.1443
r634 2008 2011 0.1443
r635 2008 2009 0.489796
r636 2006 2009 0.02535
r637 2005 2008 0.02535
r638 2005 2006 0.489796
r639 2003 2006 0.02535
r640 2002 2005 0.02535
r641 2002 2003 0.489796
r642 2000 2104 0.1443
r643 1999 2002 0.1443
r644 1999 2000 0.489796
r645 1997 2000 0.02535
r646 1996 1999 0.02535
r647 1996 1997 0.489796
r648 1994 1997 0.02535
r649 1993 1996 0.02535
r650 1993 1994 0.489796
r651 1991 2095 0.1443
r652 1990 1993 0.1443
r653 1990 1991 0.489796
r654 1988 1991 0.02535
r655 1987 1990 0.02535
r656 1987 1988 0.489796
r657 1985 1988 0.02535
r658 1984 1987 0.02535
r659 1984 1985 0.489796
r660 1982 2086 0.1443
r661 1981 1984 0.1443
r662 1981 1982 0.489796
r663 1979 1982 0.02535
r664 1978 1981 0.02535
r665 1978 1979 0.489796
r666 1976 1979 0.02535
r667 1975 1978 0.02535
r668 1975 1976 0.489796
r669 1973 2077 0.1443
r670 1972 1975 0.5967
r671 1972 1973 0.489796
r672 1970 1973 0.02535
r673 1969 1972 0.02535
r674 1969 1970 0.489796
r675 1967 1970 0.02535
r676 1966 1969 0.02535
r677 1966 1967 0.489796
r678 1964 2068 0.1443
r679 1963 1966 0.1443
r680 1963 1964 0.489796
r681 1961 1964 0.02535
r682 1960 1963 0.02535
r683 1960 1961 0.489796
r684 1958 1961 0.02535
r685 1957 1960 0.02535
r686 1957 1958 0.489796
r687 1955 2059 0.1443
r688 1954 1957 0.1443
r689 1954 1955 0.489796
r690 1952 1955 0.02535
r691 1951 1954 0.02535
r692 1951 1952 0.489796
r693 1949 1952 0.02535
r694 1948 1951 0.02535
r695 1948 1949 0.489796
r696 1946 2050 0.1443
r697 1945 1948 0.1443
r698 1945 1946 0.489796
r699 1943 1946 0.02535
r700 1942 1945 0.02535
r701 1942 1943 0.489796
r702 1940 1943 0.02535
r703 1939 1942 0.02535
r704 1939 1940 0.489796
r705 1937 2041 0.1443
r706 1936 1939 0.1443
r707 1936 1937 0.489796
r708 1934 1937 0.02535
r709 1933 1936 0.02535
r710 1933 1934 0.489796
r711 1931 1934 0.02535
r712 1930 1933 0.02535
r713 1930 1931 0.489796
r714 1928 2031 0.1443
r715 1927 1930 0.1443
r716 1927 1928 0.489796
r717 1925 1928 0.02535
r718 1924 1927 0.02535
r719 1924 1925 0.489796
r720 1921 1925 0.02535
r721 1920 1924 0.02535
r722 1920 1921 0.489796
r723 1917 2021 0.1443
r724 1916 1917 0.489796
r725 1914 1917 0.02535
r726 1913 1916 0.02535
r727 1913 1914 0.489796
r728 1911 1914 0.02535
r729 1910 1913 0.02535
r730 1910 1911 0.489796
r731 1908 2012 0.1443
r732 1907 1910 0.1443
r733 1907 1908 0.489796
r734 1905 1908 0.02535
r735 1904 1907 0.02535
r736 1904 1905 0.489796
r737 1902 1905 0.02535
r738 1901 1904 0.02535
r739 1901 1902 0.489796
r740 1899 2003 0.1443
r741 1898 1901 0.1443
r742 1898 1899 0.489796
r743 1896 1899 0.02535
r744 1895 1898 0.02535
r745 1895 1896 0.489796
r746 1893 1896 0.02535
r747 1892 1895 0.02535
r748 1892 1893 0.489796
r749 1890 1994 0.1443
r750 1889 1892 0.1443
r751 1889 1890 0.489796
r752 1887 1890 0.02535
r753 1886 1889 0.02535
r754 1886 1887 0.489796
r755 1884 1887 0.02535
r756 1883 1886 0.02535
r757 1883 1884 0.489796
r758 1881 1985 0.1443
r759 1880 1883 0.1443
r760 1880 1881 0.489796
r761 1878 1881 0.02535
r762 1877 1880 0.02535
r763 1877 1878 0.489796
r764 1875 1878 0.02535
r765 1874 1877 0.02535
r766 1874 1875 0.489796
r767 1872 1976 0.1443
r768 1871 1874 0.1443
r769 1871 1872 0.489796
r770 1869 1872 0.02535
r771 1868 1871 0.02535
r772 1868 1869 0.489796
r773 1866 1869 0.02535
r774 1865 1868 0.02535
r775 1865 1866 0.489796
r776 1863 1967 0.1443
r777 1862 1865 0.5967
r778 1862 1863 0.489796
r779 1860 1863 0.02535
r780 1859 1862 0.02535
r781 1859 1860 0.489796
r782 1857 1860 0.02535
r783 1856 1859 0.02535
r784 1856 1857 0.489796
r785 1854 1958 0.1443
r786 1853 1856 0.1443
r787 1853 1854 0.489796
r788 1851 1854 0.02535
r789 1850 1853 0.02535
r790 1850 1851 0.489796
r791 1848 1851 0.02535
r792 1847 1850 0.02535
r793 1847 1848 0.489796
r794 1845 1949 0.1443
r795 1844 1847 0.1443
r796 1844 1845 0.489796
r797 1842 1845 0.02535
r798 1841 1844 0.02535
r799 1841 1842 0.489796
r800 1839 1842 0.02535
r801 1838 1841 0.02535
r802 1838 1839 0.489796
r803 1836 1940 0.1443
r804 1835 1838 0.1443
r805 1835 1836 0.489796
r806 1833 1836 0.02535
r807 1832 1835 0.02535
r808 1832 1833 0.489796
r809 1830 1833 0.02535
r810 1829 1832 0.02535
r811 1829 1830 0.489796
r812 1827 1931 0.1443
r813 1826 1829 0.1443
r814 1826 1827 0.489796
r815 1824 1827 0.02535
r816 1823 1826 0.02535
r817 1823 1824 0.489796
r818 1821 1824 0.02535
r819 1820 1823 0.02535
r820 1820 1821 0.489796
r821 1818 1921 0.1443
r822 1817 1820 0.1443
r823 1817 1818 0.489796
r824 1815 1818 0.02535
r825 1814 1817 0.02535
r826 1814 1815 0.489796
r827 1811 1815 0.02535
r828 1810 1814 0.02535
r829 1810 1811 0.489796
r830 1806 1807 0.489796
r831 1804 1807 0.02535
r832 1803 1806 0.02535
r833 1803 1804 0.489796
r834 1801 1804 0.02535
r835 1800 1803 0.02535
r836 1800 1801 0.489796
r837 1797 1800 0.1443
r838 1797 1798 0.489796
r839 1795 1798 0.02535
r840 1794 1797 0.02535
r841 1794 1795 0.489796
r842 1792 1795 0.02535
r843 1791 1794 0.02535
r844 1791 1792 0.489796
r845 1788 1791 0.1443
r846 1788 1789 0.489796
r847 1786 1789 0.02535
r848 1785 1788 0.02535
r849 1785 1786 0.489796
r850 1783 1786 0.02535
r851 1782 1785 0.02535
r852 1782 1783 0.489796
r853 1779 1782 0.1443
r854 1779 1780 0.489796
r855 1777 1780 0.02535
r856 1776 1779 0.02535
r857 1776 1777 0.489796
r858 1774 1777 0.02535
r859 1773 1776 0.02535
r860 1773 1774 0.489796
r861 1770 1773 0.1443
r862 1770 1771 0.489796
r863 1768 1771 0.02535
r864 1767 1770 0.02535
r865 1767 1768 0.489796
r866 1765 1768 0.02535
r867 1764 1767 0.02535
r868 1764 1765 0.489796
r869 1761 1764 0.1443
r870 1761 1762 0.489796
r871 1759 1762 0.02535
r872 1758 1761 0.02535
r873 1758 1759 0.489796
r874 1756 1759 0.02535
r875 1755 1758 0.02535
r876 1755 1756 0.489796
r877 1752 1755 0.5967
r878 1752 1753 0.489796
r879 1750 1753 0.02535
r880 1749 1752 0.02535
r881 1749 1750 0.489796
r882 1747 1750 0.02535
r883 1746 1749 0.02535
r884 1746 1747 0.489796
r885 1743 1746 0.1443
r886 1743 1744 0.489796
r887 1741 1744 0.02535
r888 1740 1743 0.02535
r889 1740 1741 0.489796
r890 1738 1741 0.02535
r891 1737 1740 0.02535
r892 1737 1738 0.489796
r893 1734 1737 0.1443
r894 1734 1735 0.489796
r895 1732 1735 0.02535
r896 1731 1734 0.02535
r897 1731 1732 0.489796
r898 1729 1732 0.02535
r899 1728 1731 0.02535
r900 1728 1729 0.489796
r901 1725 1728 0.1443
r902 1725 1726 0.489796
r903 1723 1726 0.02535
r904 1722 1725 0.02535
r905 1722 1723 0.489796
r906 1720 1723 0.02535
r907 1719 1722 0.02535
r908 1719 1720 0.489796
r909 1716 1719 0.1443
r910 1716 1717 0.489796
r911 1714 1717 0.02535
r912 1713 1716 0.02535
r913 1713 1714 0.489796
r914 1711 1714 0.02535
r915 1710 1713 0.02535
r916 1710 1711 0.489796
r917 1707 1710 0.1443
r918 1707 1708 0.489796
r919 1705 1708 0.02535
r920 1704 1707 0.02535
r921 1704 1705 0.489796
r922 1701 1705 0.02535
r923 1700 1704 0.02535
r924 1700 1701 0.489796
r925 1697 1801 0.1443
r926 1696 1697 0.489796
r927 1694 1697 0.02535
r928 1693 1696 0.02535
r929 1693 1694 0.489796
r930 1691 1694 0.02535
r931 1690 1693 0.02535
r932 1690 1691 0.489796
r933 1688 1792 0.1443
r934 1687 1690 0.1443
r935 1687 1688 0.489796
r936 1685 1688 0.02535
r937 1684 1687 0.02535
r938 1684 1685 0.489796
r939 1682 1685 0.02535
r940 1681 1684 0.02535
r941 1681 1682 0.489796
r942 1679 1783 0.1443
r943 1678 1681 0.1443
r944 1678 1679 0.489796
r945 1676 1679 0.02535
r946 1675 1678 0.02535
r947 1675 1676 0.489796
r948 1673 1676 0.02535
r949 1672 1675 0.02535
r950 1672 1673 0.489796
r951 1670 1774 0.1443
r952 1669 1672 0.1443
r953 1669 1670 0.489796
r954 1667 1670 0.02535
r955 1666 1669 0.02535
r956 1666 1667 0.489796
r957 1664 1667 0.02535
r958 1663 1666 0.02535
r959 1663 1664 0.489796
r960 1661 1765 0.1443
r961 1660 1663 0.1443
r962 1660 1661 0.489796
r963 1658 1661 0.02535
r964 1657 1660 0.02535
r965 1657 1658 0.489796
r966 1655 1658 0.02535
r967 1654 1657 0.02535
r968 1654 1655 0.489796
r969 1652 1756 0.1443
r970 1651 1654 0.1443
r971 1651 1652 0.489796
r972 1649 1652 0.02535
r973 1648 1651 0.02535
r974 1648 1649 0.489796
r975 1646 1649 0.02535
r976 1645 1648 0.02535
r977 1645 1646 0.489796
r978 1643 1747 0.1443
r979 1642 1645 0.5967
r980 1642 1643 0.489796
r981 1640 1643 0.02535
r982 1639 1642 0.02535
r983 1639 1640 0.489796
r984 1637 1640 0.02535
r985 1636 1639 0.02535
r986 1636 1637 0.489796
r987 1634 1738 0.1443
r988 1633 1636 0.1443
r989 1633 1634 0.489796
r990 1631 1634 0.02535
r991 1630 1633 0.02535
r992 1630 1631 0.489796
r993 1628 1631 0.02535
r994 1627 1630 0.02535
r995 1627 1628 0.489796
r996 1625 1729 0.1443
r997 1624 1627 0.1443
r998 1624 1625 0.489796
r999 1622 1625 0.02535
r1000 1621 1624 0.02535
r1001 1621 1622 0.489796
r1002 1619 1622 0.02535
r1003 1618 1621 0.02535
r1004 1618 1619 0.489796
r1005 1616 1720 0.1443
r1006 1615 1618 0.1443
r1007 1615 1616 0.489796
r1008 1613 1616 0.02535
r1009 1612 1615 0.02535
r1010 1612 1613 0.489796
r1011 1610 1613 0.02535
r1012 1609 1612 0.02535
r1013 1609 1610 0.489796
r1014 1607 1711 0.1443
r1015 1606 1609 0.1443
r1016 1606 1607 0.489796
r1017 1604 1607 0.02535
r1018 1603 1606 0.02535
r1019 1603 1604 0.489796
r1020 1601 1604 0.02535
r1021 1600 1603 0.02535
r1022 1600 1601 0.489796
r1023 1598 1701 0.1443
r1024 1597 1600 0.1443
r1025 1597 1598 0.489796
r1026 1595 1598 0.02535
r1027 1594 1597 0.02535
r1028 1594 1595 0.489796
r1029 1591 1595 0.02535
r1030 1590 1594 0.02535
r1031 1590 1591 0.489796
r1032 1587 1691 0.1443
r1033 1586 1587 0.489796
r1034 1584 1587 0.02535
r1035 1583 1586 0.02535
r1036 1583 1584 0.489796
r1037 1581 1584 0.02535
r1038 1580 1583 0.02535
r1039 1580 1581 0.489796
r1040 1578 1682 0.1443
r1041 1577 1580 0.1443
r1042 1577 1578 0.489796
r1043 1575 1578 0.02535
r1044 1574 1577 0.02535
r1045 1574 1575 0.489796
r1046 1572 1575 0.02535
r1047 1571 1574 0.02535
r1048 1571 1572 0.489796
r1049 1569 1673 0.1443
r1050 1568 1571 0.1443
r1051 1568 1569 0.489796
r1052 1566 1569 0.02535
r1053 1565 1568 0.02535
r1054 1565 1566 0.489796
r1055 1563 1566 0.02535
r1056 1562 1565 0.02535
r1057 1562 1563 0.489796
r1058 1560 1664 0.1443
r1059 1559 1562 0.1443
r1060 1559 1560 0.489796
r1061 1557 1560 0.02535
r1062 1556 1559 0.02535
r1063 1556 1557 0.489796
r1064 1554 1557 0.02535
r1065 1553 1556 0.02535
r1066 1553 1554 0.489796
r1067 1551 1655 0.1443
r1068 1550 1553 0.1443
r1069 1550 1551 0.489796
r1070 1548 1551 0.02535
r1071 1547 1550 0.02535
r1072 1547 1548 0.489796
r1073 1545 1548 0.02535
r1074 1544 1547 0.02535
r1075 1544 1545 0.489796
r1076 1542 1646 0.1443
r1077 1541 1544 0.1443
r1078 1541 1542 0.489796
r1079 1539 1542 0.02535
r1080 1538 1541 0.02535
r1081 1538 1539 0.489796
r1082 1536 1539 0.02535
r1083 1535 1538 0.02535
r1084 1535 1536 0.489796
r1085 1533 1637 0.1443
r1086 1532 1535 0.5967
r1087 1532 1533 0.489796
r1088 1530 1533 0.02535
r1089 1529 1532 0.02535
r1090 1529 1530 0.489796
r1091 1527 1530 0.02535
r1092 1526 1529 0.02535
r1093 1526 1527 0.489796
r1094 1524 1628 0.1443
r1095 1523 1526 0.1443
r1096 1523 1524 0.489796
r1097 1521 1524 0.02535
r1098 1520 1523 0.02535
r1099 1520 1521 0.489796
r1100 1518 1521 0.02535
r1101 1517 1520 0.02535
r1102 1517 1518 0.489796
r1103 1515 1619 0.1443
r1104 1514 1517 0.1443
r1105 1514 1515 0.489796
r1106 1512 1515 0.02535
r1107 1511 1514 0.02535
r1108 1511 1512 0.489796
r1109 1509 1512 0.02535
r1110 1508 1511 0.02535
r1111 1508 1509 0.489796
r1112 1506 1610 0.1443
r1113 1505 1508 0.1443
r1114 1505 1506 0.489796
r1115 1503 1506 0.02535
r1116 1502 1505 0.02535
r1117 1502 1503 0.489796
r1118 1500 1503 0.02535
r1119 1499 1502 0.02535
r1120 1499 1500 0.489796
r1121 1497 1601 0.1443
r1122 1496 1499 0.1443
r1123 1496 1497 0.489796
r1124 1494 1497 0.02535
r1125 1493 1496 0.02535
r1126 1493 1494 0.489796
r1127 1491 1494 0.02535
r1128 1490 1493 0.02535
r1129 1490 1491 0.489796
r1130 1488 1591 0.1443
r1131 1487 1490 0.1443
r1132 1487 1488 0.489796
r1133 1485 1488 0.02535
r1134 1484 1487 0.02535
r1135 1484 1485 0.489796
r1136 1481 1485 0.02535
r1137 1480 1484 0.02535
r1138 1480 1481 0.489796
r1139 1477 1581 0.1443
r1140 1476 1477 0.489796
r1141 1474 1477 0.02535
r1142 1473 1476 0.02535
r1143 1473 1474 0.489796
r1144 1471 1474 0.02535
r1145 1470 1473 0.02535
r1146 1470 1471 0.489796
r1147 1468 1572 0.1443
r1148 1467 1470 0.1443
r1149 1467 1468 0.489796
r1150 1465 1468 0.02535
r1151 1464 1467 0.02535
r1152 1464 1465 0.489796
r1153 1462 1465 0.02535
r1154 1461 1464 0.02535
r1155 1461 1462 0.489796
r1156 1459 1563 0.1443
r1157 1458 1461 0.1443
r1158 1458 1459 0.489796
r1159 1456 1459 0.02535
r1160 1455 1458 0.02535
r1161 1455 1456 0.489796
r1162 1453 1456 0.02535
r1163 1452 1455 0.02535
r1164 1452 1453 0.489796
r1165 1450 1554 0.1443
r1166 1449 1452 0.1443
r1167 1449 1450 0.489796
r1168 1447 1450 0.02535
r1169 1446 1449 0.02535
r1170 1446 1447 0.489796
r1171 1444 1447 0.02535
r1172 1443 1446 0.02535
r1173 1443 1444 0.489796
r1174 1441 1545 0.1443
r1175 1440 1443 0.1443
r1176 1440 1441 0.489796
r1177 1438 1441 0.02535
r1178 1437 1440 0.02535
r1179 1437 1438 0.489796
r1180 1435 1438 0.02535
r1181 1434 1437 0.02535
r1182 1434 1435 0.489796
r1183 1432 1536 0.1443
r1184 1431 1434 0.1443
r1185 1431 1432 0.489796
r1186 1429 1432 0.02535
r1187 1428 1431 0.02535
r1188 1428 1429 0.489796
r1189 1426 1429 0.02535
r1190 1425 1428 0.02535
r1191 1425 1426 0.489796
r1192 1423 1527 0.1443
r1193 1422 1425 0.5967
r1194 1422 1423 0.489796
r1195 1420 1423 0.02535
r1196 1419 1422 0.02535
r1197 1419 1420 0.489796
r1198 1417 1420 0.02535
r1199 1416 1419 0.02535
r1200 1416 1417 0.489796
r1201 1414 1518 0.1443
r1202 1413 1416 0.1443
r1203 1413 1414 0.489796
r1204 1411 1414 0.02535
r1205 1410 1413 0.02535
r1206 1410 1411 0.489796
r1207 1408 1411 0.02535
r1208 1407 1410 0.02535
r1209 1407 1408 0.489796
r1210 1405 1509 0.1443
r1211 1404 1407 0.1443
r1212 1404 1405 0.489796
r1213 1402 1405 0.02535
r1214 1401 1404 0.02535
r1215 1401 1402 0.489796
r1216 1399 1402 0.02535
r1217 1398 1401 0.02535
r1218 1398 1399 0.489796
r1219 1396 1500 0.1443
r1220 1395 1398 0.1443
r1221 1395 1396 0.489796
r1222 1393 1396 0.02535
r1223 1392 1395 0.02535
r1224 1392 1393 0.489796
r1225 1390 1393 0.02535
r1226 1389 1392 0.02535
r1227 1389 1390 0.489796
r1228 1387 1491 0.1443
r1229 1386 1389 0.1443
r1230 1386 1387 0.489796
r1231 1384 1387 0.02535
r1232 1383 1386 0.02535
r1233 1383 1384 0.489796
r1234 1381 1384 0.02535
r1235 1380 1383 0.02535
r1236 1380 1381 0.489796
r1237 1378 1481 0.1443
r1238 1377 1380 0.1443
r1239 1377 1378 0.489796
r1240 1375 1378 0.02535
r1241 1374 1377 0.02535
r1242 1374 1375 0.489796
r1243 1371 1375 0.02535
r1244 1370 1374 0.02535
r1245 1370 1371 0.489796
r1246 1367 1471 0.1443
r1247 1366 1367 0.489796
r1248 1364 1367 0.02535
r1249 1363 1366 0.02535
r1250 1363 1364 0.489796
r1251 1361 1364 0.02535
r1252 1360 1363 0.02535
r1253 1360 1361 0.489796
r1254 1358 1462 0.1443
r1255 1357 1360 0.1443
r1256 1357 1358 0.489796
r1257 1355 1358 0.02535
r1258 1354 1357 0.02535
r1259 1354 1355 0.489796
r1260 1352 1355 0.02535
r1261 1351 1354 0.02535
r1262 1351 1352 0.489796
r1263 1349 1453 0.1443
r1264 1348 1351 0.1443
r1265 1348 1349 0.489796
r1266 1346 1349 0.02535
r1267 1345 1348 0.02535
r1268 1345 1346 0.489796
r1269 1343 1346 0.02535
r1270 1342 1345 0.02535
r1271 1342 1343 0.489796
r1272 1340 1444 0.1443
r1273 1339 1342 0.1443
r1274 1339 1340 0.489796
r1275 1337 1340 0.02535