* File: RCA8.pex.sp.pex
* Created: Tue May  9 11:23:42 2023
* Program "Calibre xRC"
* Version "v2018.2_24.18"
* Nominal Temperature: 27C
* Circuit Temperature: 27C
* 
.subckt PM_RCA8%X85/6 1 2
c0 1 0 0.0352592f
r1 1 2 10.08
.ends

.subckt PM_RCA8%X86/6 1 2
c0 1 0 0.00955415f
r1 1 2 10.08
.ends

.subckt PM_RCA8%X87/6 1 2
r0 1 2 10.08
.ends

.subckt PM_RCA8%X88/6 1 2
c0 1 0 0.0126542f
r1 1 2 10.08
.ends

.subckt PM_RCA8%X89/6 1 2
r0 1 2 10.08
.ends

.subckt PM_RCA8%X90/6 1 2
r0 1 2 10.08
.ends

.subckt PM_RCA8%X91/6 1 2
c0 1 0 0.0105916f
r1 1 2 10.08
.ends

.subckt PM_RCA8%X92/6 1 2
r0 1 2 10.08
.ends

.subckt PM_RCA8%X93/6 1 2
r0 1 2 10.08
.ends

.subckt PM_RCA8%X94/6 1 2
c0 1 0 0.0092879f
r1 1 2 10.08
.ends

.subckt PM_RCA8%X95/6 1 2
c0 1 0 0.0166505f
r1 1 2 10.08
.ends

.subckt PM_RCA8%X96/6 1 2
c0 1 0 0.00916821f
r1 1 2 10.08
.ends

.subckt PM_RCA8%X97/6 1 2
c0 1 0 0.0169429f
r1 1 2 10.08
.ends

.subckt PM_RCA8%X98/6 1 2
c0 1 0 0.0159611f
r1 1 2 10.08
.ends

.subckt PM_RCA8%X99/6 1 2
r0 1 2 10.08
.ends

.subckt PM_RCA8%X100/6 1 2
c0 1 0 0.0234918f
r1 1 2 10.08
.ends

.subckt PM_RCA8%X101/6 1 2
c0 1 0 0.0378699f
r1 1 2 10.08
.ends

.subckt PM_RCA8%X102/6 1 2
r0 1 2 10.08
.ends

.subckt PM_RCA8%X103/6 1 2
r0 1 2 10.08
.ends

.subckt PM_RCA8%X104/6 1 2
r0 1 2 10.08
.ends

.subckt PM_RCA8%X105/6 1 2
c0 1 0 0.0102307f
r1 1 2 10.08
.ends

.subckt PM_RCA8%X106/6 1 2
r0 1 2 10.08
.ends

.subckt PM_RCA8%X107/6 1 2
c0 1 0 0.00607259f
r1 1 2 10.08
.ends

.subckt PM_RCA8%X108/6 1 2
c0 1 0 0.0169429f
r1 1 2 10.08
.ends

.subckt PM_RCA8%X109/6 1 2
r0 1 2 10.08
.ends

.subckt PM_RCA8%X110/6 1 2
r0 1 2 10.08
.ends

.subckt PM_RCA8%X111/6 1 2
r0 1 2 10.08
.ends

.subckt PM_RCA8%X112/6 1 2
r0 1 2 10.08
.ends

.subckt PM_RCA8%X113/6 1 2
r0 1 2 10.08
.ends

.subckt PM_RCA8%X114/6 1 2
r0 1 2 10.08
.ends

.subckt PM_RCA8%X115/6 1 2
c0 1 0 0.0107271f
r1 1 2 10.08
.ends

.subckt PM_RCA8%X116/6 1 2
c0 1 0 0.0249159f
r1 1 2 10.08
.ends

.subckt PM_RCA8%X117/6 1 2
c0 1 0 0.0169429f
r1 1 2 10.08
.ends

.subckt PM_RCA8%X118/6 1 2
r0 1 2 10.08
.ends

.subckt PM_RCA8%X119/6 1 2
c0 1 0 0.00980233f
r1 1 2 10.08
.ends

.subckt PM_RCA8%X120/6 1 2
r0 1 2 10.08
.ends

.subckt PM_RCA8%X121/6 1 2
r0 1 2 10.08
.ends

.subckt PM_RCA8%X122/6 1 2
r0 1 2 10.08
.ends

.subckt PM_RCA8%X123/6 1 2
r0 1 2 10.08
.ends

.subckt PM_RCA8%X133/X0/6 1 2
r0 1 2 10.08
.ends

.subckt PM_RCA8%X133/X1/6 1 2
r0 1 2 10.08
.ends

.subckt PM_RCA8%X134/X0/6 1 2
c0 1 0 0.00916821f
r1 1 2 10.08
.ends

.subckt PM_RCA8%X134/X1/6 1 2
c0 1 0 0.010596f
r1 1 2 10.08
.ends

.subckt PM_RCA8%X135/X0/6 1 2
r0 1 2 10.08
.ends

.subckt PM_RCA8%X135/X1/6 1 2
c0 1 0 0.00980233f
r1 1 2 10.08
.ends

.subckt PM_RCA8%X136/X0/6 1 2
r0 1 2 10.08
.ends

.subckt PM_RCA8%X136/X1/6 1 2
r0 1 2 10.08
.ends

.subckt PM_RCA8%X137/X0/6 1 2
r0 1 2 10.08
.ends

.subckt PM_RCA8%X137/X1/6 1 2
r0 1 2 10.08
.ends

.subckt PM_RCA8%X138/X0/6 1 2
r0 1 2 10.08
.ends

.subckt PM_RCA8%X138/X1/6 1 2
r0 1 2 10.08
.ends

.subckt PM_RCA8%X139/X0/6 1 2
c0 1 0 0.00916821f
r1 1 2 10.08
.ends

.subckt PM_RCA8%X139/X1/6 1 2
r0 1 2 10.08
.ends

.subckt PM_RCA8%X140/X0/6 1 2
r0 1 2 10.08
.ends

.subckt PM_RCA8%X140/X1/6 1 2
r0 1 2 10.08
.ends

.subckt PM_RCA8%X141/X0/6 1 2
r0 1 2 10.08
.ends

.subckt PM_RCA8%X141/X1/6 1 2
r0 1 2 10.08
.ends

.subckt PM_RCA8%X142/X0/6 1 2
r0 1 2 10.08
.ends

.subckt PM_RCA8%X142/X1/6 1 2
c0 1 0 0.0102307f
r1 1 2 10.08
.ends

.subckt PM_RCA8%X143/X0/6 1 2
r0 1 2 10.08
.ends

.subckt PM_RCA8%X143/X1/6 1 2
r0 1 2 10.08
.ends

.subckt PM_RCA8%X124/X0/6 1 2
r0 1 2 10.08
.ends

.subckt PM_RCA8%X124/X1/6 1 2
r0 1 2 10.08
.ends

.subckt PM_RCA8%X125/X0/6 1 2
r0 1 2 10.08
.ends

.subckt PM_RCA8%X125/X1/6 1 2
c0 1 0 0.0167174f
r1 1 2 10.08
.ends

.subckt PM_RCA8%X126/X0/6 1 2
r0 1 2 10.08
.ends

.subckt PM_RCA8%X126/X1/6 1 2
c0 1 0 0.0170527f
r1 1 2 10.08
.ends

.subckt PM_RCA8%X127/X0/6 1 2
c0 1 0 0.00619543f
r1 1 2 10.08
.ends

.subckt PM_RCA8%X127/X1/6 1 2
c0 1 0 0.00475029f
r1 1 2 10.08
.ends

.subckt PM_RCA8%X128/X0/6 1 2
c0 1 0 0.0210397f
r1 1 2 10.08
.ends

.subckt PM_RCA8%X128/X1/6 1 2
c0 1 0 0.0337f
r1 1 2 10.08
.ends

.subckt PM_RCA8%X129/X0/6 1 2
c0 1 0 0.00663602f
r1 1 2 10.08
.ends

.subckt PM_RCA8%X129/X1/6 1 2
c0 1 0 0.00256498f
r1 1 2 10.08
.ends

.subckt PM_RCA8%X130/X0/6 1 2
r0 1 2 10.08
.ends

.subckt PM_RCA8%X130/X1/6 1 2
r0 1 2 10.08
.ends

.subckt PM_RCA8%X131/X0/6 1 2
r0 1 2 10.08
.ends

.subckt PM_RCA8%X131/X1/6 1 2
r0 1 2 10.08
.ends

.subckt PM_RCA8%X132/X0/6 1 2
r0 1 2 10.08
.ends

.subckt PM_RCA8%X132/X1/6 1 2
c0 1 0 0.0102307f
r1 1 2 10.08
.ends

.subckt PM_RCA8%GND! 76 77 84 91 98 105 112 119 126 133 140 147 154 161 168 175
+ 182 189 196 203 210 217 224 231 238 245 252 259 266 273 280 287 294 301 308
+ 315 322 329 336 343 566 573 580 587 594 601 608 615 622 629 636 643 650 657
+ 664 671 678 685 692 699 706 713 720 727 734 741 748 755 762 769 776 783 790
+ 797 804 811 818 825 832 839 846 858 865 877 884 896 903 915 922 934 941 953
+ 960 972 979 991 998 1010 1017 1029 1036 1048 1055 1067 1074 1086 1093 1105
+ 1112 1124 1131 1143 1150 1162 1169 1181 1188 1200 1207 2476 4353
c0 6298 0 4.83072f
c1 6247 0 7.32283f
c2 6244 0 4.83072f
c3 6188 0 9.67136f
c4 6137 0 10.8506f
c5 6134 0 9.67136f
c6 6078 0 9.67136f
c7 6027 0 10.8626f
c8 6024 0 9.67136f
c9 5968 0 9.67136f
c10 5917 0 10.6202f
c11 5914 0 9.67136f
c12 5858 0 9.67136f
c13 5807 0 10.6202f
c14 5804 0 9.67136f
c15 5748 0 9.67145f
c16 5746 0 5.36389f
c17 5737 0 10.9742f
c18 5728 0 10.9742f
c19 5719 0 10.9742f
c20 5710 0 10.9742f
c21 5701 0 10.9742f
c22 5697 0 10.6202f
c23 5694 0 9.67145f
c24 5692 0 10.9742f
c25 5683 0 10.9742f
c26 5674 0 10.9742f
c27 5665 0 10.9742f
c28 5656 0 10.9742f
c29 5647 0 5.36389f
c30 5638 0 9.67145f
c31 5587 0 10.6202f
c32 5584 0 9.67145f
c33 5528 0 9.67136f
c34 5477 0 10.6202f
c35 5474 0 9.67136f
c36 5418 0 9.67136f
c37 5367 0 10.6202f
c38 5364 0 9.67136f
c39 5308 0 9.67136f
c40 5257 0 10.625f
c41 5254 0 9.67136f
c42 5198 0 9.67136f
c43 5147 0 10.6202f
c44 5144 0 9.67136f
c45 5088 0 4.83072f
c46 5083 0 5.36389f
c47 5074 0 10.9742f
c48 5065 0 10.9742f
c49 5056 0 10.9742f
c50 5047 0 10.9742f
c51 5038 0 10.9742f
c52 5037 0 7.08894f
c53 5034 0 4.83072f
c54 5029 0 10.9742f
c55 5020 0 10.9742f
c56 5011 0 10.9742f
c57 5002 0 10.9742f
c58 4993 0 10.9742f
c59 4983 0 5.36389f
c60 4869 0 0.2033f
c61 4865 0 0.449082f
c62 4862 0 0.191877f
c63 4861 0 0.350194f
c64 4857 0 0.245123f
c65 4853 0 0.36486f
c66 4848 0 0.150063f
c67 4843 0 0.336804f
c68 4839 0 0.377233f
c69 4830 0 0.380627f
c70 4826 0 0.19672f
c71 4819 0 0.45689f
c72 4811 0 0.0743561f
c73 4809 0 0.171036f
c74 4803 0 0.214032f
c75 4801 0 0.0799371f
c76 4800 0 0.422435f
c77 4798 0 0.164952f
c78 4797 0 0.340096f
c79 4792 0 0.200869f
c80 4790 0 0.405787f
c81 4764 0 6.93867f
c82 4748 0 6.85152f
c83 4356 0 0.145098f
c84 4321 0 0.0177466f
c85 4299 0 0.0471277f
c86 4196 0 0.0203429f
c87 4115 0 0.022787f
c88 4112 0 0.0639842f
c89 4061 0 0.0497419f
c90 4053 0 0.0549486f
c91 3966 0 0.0329333f
c92 3940 0 0.0109514f
c93 3921 0 0.00308892f
c94 3903 0 0.127937f
c95 3900 0 0.393031f
c96 3886 0 0.110576f
c97 3883 0 0.0812747f
c98 3869 0 0.110631f
c99 3866 0 0.0926254f
c100 3852 0 0.110576f
c101 3849 0 0.0812747f
c102 3835 0 0.110576f
c103 3832 0 0.0812747f
c104 3822 0 8.05648f
c105 3818 0 0.117884f
c106 3815 0 0.385649f
c107 3801 0 0.100523f
c108 3798 0 0.0738928f
c109 3784 0 0.100789f
c110 3781 0 0.103693f
c111 3767 0 0.100523f
c112 3764 0 0.0738928f
c113 3750 0 0.100523f
c114 3747 0 0.0738928f
c115 3737 0 11.8597f
c116 3733 0 0.117884f
c117 3730 0 0.385649f
c118 3716 0 0.100523f
c119 3713 0 0.0738928f
c120 3699 0 0.100555f
c121 3696 0 0.0831079f
c122 3682 0 0.100523f
c123 3679 0 0.0738928f
c124 3665 0 0.100523f
c125 3662 0 0.0738928f
c126 3652 0 11.8418f
c127 3648 0 0.117884f
c128 3645 0 0.385649f
c129 3631 0 0.100523f
c130 3628 0 0.0738928f
c131 3614 0 0.100555f
c132 3611 0 0.0831079f
c133 3597 0 0.100523f
c134 3594 0 0.0738928f
c135 3580 0 0.100523f
c136 3577 0 0.0738928f
c137 3567 0 11.8444f
c138 3563 0 0.106512f
c139 3560 0 0.187106f
c140 3546 0 0.100523f
c141 3543 0 0.0738928f
c142 3529 0 0.100555f
c143 3526 0 0.0831079f
c144 3512 0 0.100523f
c145 3509 0 0.0738928f
c146 3495 0 0.100523f
c147 3492 0 0.0738928f
c148 3482 0 12.0071f
c149 3478 0 0.100562f
c150 3475 0 0.0738928f
c151 3461 0 0.100523f
c152 3458 0 0.0738928f
c153 3444 0 0.100555f
c154 3441 0 0.0831079f
c155 3427 0 0.100523f
c156 3424 0 0.0738928f
c157 3410 0 0.100523f
c158 3407 0 0.0738928f
c159 3397 0 11.6834f
c160 3393 0 0.100562f
c161 3390 0 0.0738928f
c162 3376 0 0.100523f
c163 3373 0 0.0738928f
c164 3359 0 0.10276f
c165 3356 0 0.170282f
c166 3342 0 0.117884f
c167 3339 0 0.385649f
c168 3325 0 0.100523f
c169 3322 0 0.0738928f
c170 3312 0 11.658f
c171 3308 0 0.100555f
c172 3305 0 0.0831079f
c173 3291 0 0.100523f
c174 3288 0 0.0738928f
c175 3274 0 0.10276f
c176 3271 0 0.170282f
c177 3257 0 0.117884f
c178 3254 0 0.385649f
c179 3240 0 0.100523f
c180 3237 0 0.0738928f
c181 3227 0 11.8882f
c182 3223 0 0.100555f
c183 3220 0 0.0831079f
c184 3206 0 0.100523f
c185 3203 0 0.0738928f
c186 3189 0 0.10276f
c187 3186 0 0.170282f
c188 3172 0 0.117884f
c189 3169 0 0.385649f
c190 3155 0 0.100523f
c191 3152 0 0.0738928f
c192 3142 0 11.8882f
c193 3138 0 0.100555f
c194 3135 0 0.0831079f
c195 3121 0 0.100523f
c196 3118 0 0.0738928f
c197 3104 0 0.10276f
c198 3101 0 0.170282f
c199 3087 0 0.117884f
c200 3084 0 0.385649f
c201 3070 0 0.100523f
c202 3067 0 0.0738928f
c203 3057 0 11.9582f
c204 3053 0 0.100555f
c205 3050 0 0.0831079f
c206 3036 0 0.100523f
c207 3033 0 0.0738928f
c208 3019 0 0.10082f
c209 3016 0 0.112908f
c210 3002 0 0.117884f
c211 2999 0 0.385649f
c212 2985 0 0.100523f
c213 2982 0 0.0738928f
c214 2972 0 11.9625f
c215 2968 0 0.110607f
c216 2965 0 0.0904897f
c217 2951 0 0.110576f
c218 2948 0 0.0812747f
c219 2934 0 0.110872f
c220 2931 0 0.12029f
c221 2917 0 0.128126f
c222 2914 0 0.399725f
c223 2900 0 0.110576f
c224 2897 0 0.0812747f
c225 2887 0 8.13724f
c226 2800 0 0.0176811f
c227 2799 0 0.264699f
c228 2798 0 0.0227863f
c229 2797 0 0.274568f
c230 2796 0 0.0168296f
c231 2795 0 0.249552f
c232 2793 0 0.00308892f
c233 2792 0 0.382442f
c234 2790 0 0.0168296f
c235 2789 0 0.250963f
c236 2787 0 0.0384472f
c237 2786 0 0.107351f
c238 2784 0 0.0200405f
c239 2783 0 0.458171f
c240 2781 0 0.0168296f
c241 2780 0 0.471854f
c242 2778 0 0.0201623f
c243 2777 0 0.249982f
c244 2773 0 0.402693f
c245 2772 0 0.197259f
c246 2771 0 0.0305224f
c247 2770 0 0.312482f
c248 2768 0 0.0200405f
c249 2766 0 0.0467738f
c250 2765 0 0.142998f
c251 2763 0 0.0168296f
c252 2762 0 0.32652f
c253 2760 0 0.0231893f
c254 2759 0 0.121813f
c255 2757 0 0.0519233f
c256 2755 0 0.0406154f
c257 2754 0 0.35127f
c258 2750 0 0.232463f
c259 2749 0 0.0727973f
c260 2746 0 0.364748f
c261 2745 0 0.0498506f
c262 2744 0 0.0314871f
c263 2743 0 0.145387f
c264 2741 0 0.0346932f
c265 2739 0 0.0481212f
c266 2738 0 0.127247f
c267 2737 0 0.0347996f
c268 2736 0 0.104708f
c269 2734 0 0.0484981f
c270 2732 0 0.0348002f
c271 2731 0 0.0972687f
c272 2729 0 0.0468044f
c273 2727 0 0.0192064f
c274 2723 0 0.25257f
c275 2722 0 0.122009f
c276 2721 0 0.0270142f
c277 2720 0 0.31137f
c278 2719 0 0.046715f
c279 2718 0 0.214777f
c280 2717 0 0.0176811f
c281 2716 0 0.503117f
c282 2714 0 0.0563656f
c283 2713 0 0.243559f
c284 2711 0 0.023329f
c285 2710 0 0.269348f
c286 2708 0 0.0168296f
c287 2707 0 0.252976f
c288 2705 0 0.0467754f
c289 2704 0 0.191713f
c290 2703 0 0.0525933f
c291 2702 0 0.120616f
c292 2701 0 0.0467738f
c293 2699 0 0.0168296f
c294 2698 0 0.316715f
c295 2696 0 0.023329f
c296 2691 0 0.25225f
c297 2690 0 0.164262f
c298 2687 0 0.263867f
c299 2686 0 0.190255f
c300 2685 0 0.0168296f
c301 2684 0 0.312035f
c302 2682 0 0.0176811f
c303 2681 0 0.499789f
c304 2679 0 0.0226302f
c305 2678 0 0.322783f
c306 2676 0 0.0284342f
c307 2675 0 0.365452f
c308 2674 0 0.0244018f
c309 2673 0 0.325893f
c310 2672 0 0.0168296f
c311 2671 0 0.172765f
c312 2669 0 0.0168296f
c313 2668 0 0.242367f
c314 2666 0 0.0493863f
c315 2665 0 0.188729f
c316 2664 0 0.0168296f
c317 2663 0 0.248056f
c318 2661 0 0.0587988f
c319 2659 0 0.0231238f
c320 2658 0 0.289707f
c321 2656 0 0.0224072f
c322 2654 0 0.0168296f
c323 2653 0 6.73642f
c324 2651 0 0.0180149f
c325 2647 0 6.46511f
c326 2591 0 6.48344f
c327 2529 0 6.63642f
c328 2470 0 0.124265f
c329 2469 0 0.150671f
c330 2441 0 0.0404532f
c331 2440 0 0.143341f
c332 2370 0 0.0933395f
c333 2369 0 0.347168f
c334 2356 0 0.133142f
c335 2355 0 0.297086f
c336 2323 0 0.243836f
c337 2312 0 0.24234f
c338 2299 0 0.159124f
c339 2298 0 0.238915f
c340 2281 0 0.534349f
c341 2279 0 0.478736f
c342 2271 0 0.590571f
c343 2263 0 0.128447f
c344 2256 0 0.066808f
c345 2255 0 0.144549f
c346 2254 0 0.049578f
c347 2253 0 0.151584f
c348 2227 0 0.178673f
c349 2219 0 0.296894f
c350 2211 0 0.173305f
c351 2173 0 0.599279f
c352 2168 0 0.530184f
c353 2133 0 0.304914f
c354 2116 0 0.238229f
c355 2102 0 0.244089f
c356 2028 0 6.91588f
c357 1972 0 6.71024f
c358 1916 0 7.12257f
c359 1860 0 6.65664f
c360 1210 0 0.0744835f
c361 1203 0 0.0733715f
c362 1191 0 0.0772338f
c363 1184 0 0.0599178f
c364 1172 0 0.0763173f
c365 1165 0 0.0556709f
c366 1153 0 0.0781288f
c367 1146 0 0.0541583f
c368 1134 0 0.0766939f
c369 1127 0 0.0571763f
c370 1115 0 0.0818352f
c371 1112 0 0.0100945f
c372 1108 0 0.055315f
c373 1096 0 0.0707181f
c374 1089 0 0.0549421f
c375 1086 0 0.00224792f
c376 1077 0 0.0733708f
c377 1070 0 0.0597834f
c378 1067 0 0.00224792f
c379 1058 0 0.0836525f
c380 1055 0 0.0163414f
c381 1051 0 0.0563085f
c382 1039 0 0.0770206f
c383 1032 0 0.0571763f
c384 1020 0 0.0725451f
c385 1013 0 0.0654105f
c386 1001 0 0.0736239f
c387 994 0 0.0658904f
c388 982 0 0.075201f
c389 975 0 0.0726014f
c390 963 0 0.0732162f
c391 956 0 0.0488892f
c392 944 0 0.0966022f
c393 941 0 0.0170942f
c394 937 0 0.0785649f
c395 934 0 0.00914516f
c396 925 0 0.0893539f
c397 922 0 0.0117248f
c398 918 0 0.0738895f
c399 915 0 0.0109179f
c400 906 0 0.087444f
c401 899 0 0.0587144f
c402 896 0 0.0163414f
c403 887 0 0.0810253f
c404 880 0 0.0588405f
c405 868 0 0.091147f
c406 865 0 0.0163414f
c407 861 0 0.0732836f
c408 858 0 0.00224792f
c409 849 0 0.07693f
c410 842 0 0.0567229f
c411 835 0 0.0758295f
c412 828 0 0.0564782f
c413 821 0 0.0568821f
c414 814 0 0.0731967f
c415 807 0 0.0638466f
c416 804 0 0.00999449f
c417 800 0 0.0509157f
c418 793 0 0.0591656f
c419 786 0 0.0893851f
c420 783 0 0.00734863f
c421 779 0 0.0731608f
c422 776 0 0.0068985f
c423 772 0 0.0472253f
c424 765 0 0.062527f
c425 758 0 0.0702345f
c426 751 0 0.0834666f
c427 744 0 0.0620956f
c428 737 0 0.0750976f
c429 730 0 0.062948f
c430 723 0 0.0580005f
c431 720 0 0.0079942f
c432 716 0 0.0689741f
c433 709 0 0.058596f
c434 702 0 0.0579072f
c435 695 0 0.0577341f
c436 688 0 0.0487851f
c437 681 0 0.0768967f
c438 678 0 0.0102636f
c439 674 0 0.0788666f
c440 671 0 0.00690134f
c441 667 0 0.0800863f
c442 664 0 0.00531379f
c443 660 0 0.0834192f
c444 657 0 0.00983315f
c445 653 0 0.0582702f
c446 646 0 0.0680714f
c447 639 0 0.0895379f
c448 636 0 0.0101939f
c449 632 0 0.0505092f
c450 625 0 0.0702639f
c451 618 0 0.0648981f
c452 611 0 0.0603649f
c453 604 0 0.057207f
c454 597 0 0.0660748f
c455 594 0 0.00224792f
c456 590 0 0.0872545f
c457 587 0 0.00543361f
c458 583 0 0.058462f
c459 576 0 0.0590172f
c460 569 0 0.0883518f
c461 566 0 0.0104331f
c462 346 0 0.0833329f
c463 339 0 0.0888617f
c464 332 0 0.0820713f
c465 325 0 0.0958147f
c466 322 0 0.00903233f
c467 318 0 0.0841891f
c468 311 0 0.0986456f
c469 304 0 0.118858f
c470 301 0 0.00822644f
c471 297 0 0.085831f
c472 294 0 0.00513926f
c473 290 0 0.0809199f
c474 283 0 0.0875594f
c475 276 0 0.110431f
c476 269 0 0.082247f
c477 262 0 0.100459f
c478 259 0 0.0094515f
c479 255 0 0.0862158f
c480 248 0 0.0841282f
c481 241 0 0.107428f
c482 234 0 0.111681f
c483 227 0 0.0898047f
c484 220 0 0.0929183f
c485 213 0 0.105188f
c486 210 0 0.00903995f
c487 206 0 0.0863517f
c488 199 0 0.10545f
c489 196 0 0.00679125f
c490 192 0 0.100787f
c491 185 0 0.104699f
c492 182 0 0.00900802f
c493 178 0 0.0989559f
c494 175 0 0.0113207f
c495 171 0 0.121849f
c496 168 0 0.0019684f
c497 164 0 0.103765f
c498 157 0 0.0879776f
c499 150 0 0.114462f
c500 147 0 0.00764312f
c501 143 0 0.0966378f
c502 136 0 0.126235f
c503 133 0 0.00256039f
c504 129 0 0.119234f
c505 122 0 0.0997413f
c506 119 0 0.00696925f
c507 115 0 0.115091f
c508 112 0 0.0242557f
c509 108 0 0.105518f
c510 101 0 0.0918935f
c511 94 0 0.0862772f
c512 87 0 0.0903427f
c513 80 0 0.108368f
r514 6298 6299 0.489796
r515 6296 6299 0.02535
r516 6295 6298 0.02535
r517 6295 6296 0.489796
r518 6293 6296 0.02535
r519 6292 6295 0.02535
r520 6292 6293 0.489796
r521 6289 6292 0.1443
r522 6289 6290 0.489796
r523 6287 6290 0.02535
r524 6286 6289 0.02535
r525 6286 6287 0.489796
r526 6284 6287 0.02535
r527 6283 6286 0.02535
r528 6283 6284 0.489796
r529 6280 6283 0.1443
r530 6280 6281 0.489796
r531 6278 6281 0.02535
r532 6277 6280 0.02535
r533 6277 6278 0.489796
r534 6275 6278 0.02535
r535 6274 6277 0.02535
r536 6274 6275 0.489796
r537 6271 6274 0.1443
r538 6271 6272 0.489796
r539 6269 6272 0.02535
r540 6268 6271 0.02535
r541 6268 6269 0.489796
r542 6266 6269 0.02535
r543 6265 6268 0.02535
r544 6265 6266 0.489796
r545 6262 6265 0.1443
r546 6262 6263 0.489796
r547 6260 6263 0.02535
r548 6259 6262 0.02535
r549 6259 6260 0.489796
r550 6257 6260 0.02535
r551 6256 6259 0.02535
r552 6256 6257 0.489796
r553 6253 6256 0.1443
r554 6253 6254 0.489796
r555 6251 6254 0.02535
r556 6250 6253 0.02535
r557 6250 6251 0.489796
r558 6248 6251 0.02535
r559 6247 6250 0.02535
r560 6247 6248 0.489796
r561 6244 6247 1.09005
r562 6244 6245 0.489796
r563 6242 6245 0.02535
r564 6241 6244 0.02535
r565 6241 6242 0.489796
r566 6239 6242 0.02535
r567 6238 6241 0.02535
r568 6238 6239 0.489796
r569 6235 6238 0.1443
r570 6235 6236 0.489796
r571 6233 6236 0.02535
r572 6232 6235 0.02535
r573 6232 6233 0.489796
r574 6230 6233 0.02535
r575 6229 6232 0.02535
r576 6229 6230 0.489796
r577 6226 6229 0.1443
r578 6226 6227 0.489796
r579 6224 6227 0.02535
r580 6223 6226 0.02535
r581 6223 6224 0.489796
r582 6221 6224 0.02535
r583 6220 6223 0.02535
r584 6220 6221 0.489796
r585 6217 6220 0.1443
r586 6217 6218 0.489796
r587 6215 6218 0.02535
r588 6214 6217 0.02535
r589 6214 6215 0.489796
r590 6212 6215 0.02535
r591 6211 6214 0.02535
r592 6211 6212 0.489796
r593 6208 6211 0.1443
r594 6208 6209 0.489796
r595 6206 6209 0.02535
r596 6205 6208 0.02535
r597 6205 6206 0.489796
r598 6203 6206 0.02535
r599 6202 6205 0.02535
r600 6202 6203 0.489796
r601 6199 6202 0.1443
r602 6199 6200 0.489796
r603 6197 6200 0.02535
r604 6196 6199 0.02535
r605 6196 6197 0.489796
r606 6193 6197 0.02535
r607 6192 6196 0.02535
r608 6192 6193 0.489796
r609 6189 6293 0.1443
r610 6188 6189 0.489796
r611 6186 6189 0.02535
r612 6185 6188 0.02535
r613 6185 6186 0.489796
r614 6183 6186 0.02535
r615 6182 6185 0.02535
r616 6182 6183 0.489796
r617 6180 6284 0.1443
r618 6179 6182 0.1443
r619 6179 6180 0.489796
r620 6177 6180 0.02535
r621 6176 6179 0.02535
r622 6176 6177 0.489796
r623 6174 6177 0.02535
r624 6173 6176 0.02535
r625 6173 6174 0.489796
r626 6171 6275 0.1443
r627 6170 6173 0.1443
r628 6170 6171 0.489796
r629 6168 6171 0.02535
r630 6167 6170 0.02535
r631 6167 6168 0.489796
r632 6165 6168 0.02535
r633 6164 6167 0.02535
r634 6164 6165 0.489796
r635 6162 6266 0.1443
r636 6161 6164 0.1443
r637 6161 6162 0.489796
r638 6159 6162 0.02535
r639 6158 6161 0.02535
r640 6158 6159 0.489796
r641 6156 6159 0.02535
r642 6155 6158 0.02535
r643 6155 6156 0.489796
r644 6153 6257 0.1443
r645 6152 6155 0.1443
r646 6152 6153 0.489796
r647 6150 6153 0.02535
r648 6149 6152 0.02535
r649 6149 6150 0.489796
r650 6147 6150 0.02535
r651 6146 6149 0.02535
r652 6146 6147 0.489796
r653 6144 6248 0.1443
r654 6143 6146 0.1443
r655 6143 6144 0.489796
r656 6141 6144 0.02535
r657 6140 6143 0.02535
r658 6140 6141 0.489796
r659 6138 6141 0.02535
r660 6137 6140 0.02535
r661 6137 6138 0.489796
r662 6135 6239 0.1443
r663 6134 6137 1.09005
r664 6134 6135 0.489796
r665 6132 6135 0.02535
r666 6131 6134 0.02535
r667 6131 6132 0.489796
r668 6129 6132 0.02535
r669 6128 6131 0.02535
r670 6128 6129 0.489796
r671 6126 6230 0.1443
r672 6125 6128 0.1443
r673 6125 6126 0.489796
r674 6123 6126 0.02535
r675 6122 6125 0.02535
r676 6122 6123 0.489796
r677 6120 6123 0.02535
r678 6119 6122 0.02535
r679 6119 6120 0.489796
r680 6117 6221 0.1443
r681 6116 6119 0.1443
r682 6116 6117 0.489796
r683 6114 6117 0.02535
r684 6113 6116 0.02535
r685 6113 6114 0.489796
r686 6111 6114 0.02535
r687 6110 6113 0.02535
r688 6110 6111 0.489796
r689 6108 6212 0.1443
r690 6107 6110 0.1443
r691 6107 6108 0.489796
r692 6105 6108 0.02535
r693 6104 6107 0.02535
r694 6104 6105 0.489796
r695 6102 6105 0.02535
r696 6101 6104 0.02535
r697 6101 6102 0.489796
r698 6099 6203 0.1443
r699 6098 6101 0.1443
r700 6098 6099 0.489796
r701 6096 6099 0.02535
r702 6095 6098 0.02535
r703 6095 6096 0.489796
r704 6093 6096 0.02535
r705 6092 6095 0.02535
r706 6092 6093 0.489796
r707 6090 6193 0.1443
r708 6089 6092 0.1443
r709 6089 6090 0.489796
r710 6087 6090 0.02535
r711 6086 6089 0.02535
r712 6086 6087 0.489796
r713 6083 6087 0.02535
r714 6082 6086 0.02535
r715 6082 6083 0.489796
r716 6079 6183 0.1443
r717 6078 6079 0.489796
r718 6076 6079 0.02535
r719 6075 6078 0.02535
r720 6075 6076 0.489796
r721 6073 6076 0.02535
r722 6072 6075 0.02535
r723 6072 6073 0.489796
r724 6070 6174 0.1443
r725 6069 6072 0.1443
r726 6069 6070 0.489796
r727 6067 6070 0.02535
r728 6066 6069 0.02535
r729 6066 6067 0.489796
r730 6064 6067 0.02535
r731 6063 6066 0.02535
r732 6063 6064 0.489796
r733 6061 6165 0.1443
r734 6060 6063 0.1443
r735 6060 6061 0.489796
r736 6058 6061 0.02535
r737 6057 6060 0.02535
r738 6057 6058 0.489796
r739 6055 6058 0.02535
r740 6054 6057 0.02535
r741 6054 6055 0.489796
r742 6052 6156 0.1443
r743 6051 6054 0.1443
r744 6051 6052 0.489796
r745 6049 6052 0.02535
r746 6048 6051 0.02535
r747 6048 6049 0.489796
r748 6046 6049 0.02535
r749 6045 6048 0.02535
r750 6045 6046 0.489796
r751 6043 6147 0.1443
r752 6042 6045 0.1443
r753 6042 6043 0.489796
r754 6040 6043 0.02535
r755 6039 6042 0.02535
r756 6039 6040 0.489796
r757 6037 6040 0.02535
r758 6036 6039 0.02535
r759 6036 6037 0.489796
r760 6034 6138 0.1443
r761 6033 6036 0.1443
r762 6033 6034 0.489796
r763 6031 6034 0.02535
r764 6030 6033 0.02535
r765 6030 6031 0.489796
r766 6028 6031 0.02535
r767 6027 6030 0.02535
r768 6027 6028 0.489796
r769 6025 6129 0.1443
r770 6024 6027 1.09005
r771 6024 6025 0.489796
r772 6022 6025 0.02535
r773 6021 6024 0.02535
r774 6021 6022 0.489796
r775 6019 6022 0.02535
r776 6018 6021 0.02535
r777 6018 6019 0.489796
r778 6016 6120 0.1443
r779 6015 6018 0.1443
r780 6015 6016 0.489796
r781 6013 6016 0.02535
r782 6012 6015 0.02535
r783 6012 6013 0.489796
r784 6010 6013 0.02535
r785 6009 6012 0.02535
r786 6009 6010 0.489796
r787 6007 6111 0.1443
r788 6006 6009 0.1443
r789 6006 6007 0.489796
r790 6004 6007 0.02535
r791 6003 6006 0.02535
r792 6003 6004 0.489796
r793 6001 6004 0.02535
r794 6000 6003 0.02535
r795 6000 6001 0.489796
r796 5998 6102 0.1443
r797 5997 6000 0.1443
r798 5997 5998 0.489796
r799 5995 5998 0.02535
r800 5994 5997 0.02535
r801 5994 5995 0.489796
r802 5992 5995 0.02535
r803 5991 5994 0.02535
r804 5991 5992 0.489796
r805 5989 6093 0.1443
r806 5988 5991 0.1443
r807 5988 5989 0.489796
r808 5986 5989 0.02535
r809 5985 5988 0.02535
r810 5985 5986 0.489796
r811 5983 5986 0.02535
r812 5982 5985 0.02535
r813 5982 5983 0.489796
r814 5980 6083 0.1443
r815 5979 5982 0.1443
r816 5979 5980 0.489796
r817 5977 5980 0.02535
r818 5976 5979 0.02535
r819 5976 5977 0.489796
r820 5973 5977 0.02535
r821 5972 5976 0.02535
r822 5972 5973 0.489796
r823 5969 6073 0.1443
r824 5968 5969 0.489796
r825 5966 5969 0.02535
r826 5965 5968 0.02535
r827 5965 5966 0.489796
r828 5963 5966 0.02535
r829 5962 5965 0.02535
r830 5962 5963 0.489796
r831 5960 6064 0.1443
r832 5959 5962 0.1443
r833 5959 5960 0.489796
r834 5957 5960 0.02535
r835 5956 5959 0.02535
r836 5956 5957 0.489796
r837 5954 5957 0.02535
r838 5953 5956 0.02535
r839 5953 5954 0.489796
r840 5951 6055 0.1443
r841 5950 5953 0.1443
r842 5950 5951 0.489796
r843 5948 5951 0.02535
r844 5947 5950 0.02535
r845 5947 5948 0.489796
r846 5945 5948 0.02535
r847 5944 5947 0.02535
r848 5944 5945 0.489796
r849 5942 6046 0.1443
r850 5941 5944 0.1443
r851 5941 5942 0.489796
r852 5939 5942 0.02535
r853 5938 5941 0.02535
r854 5938 5939 0.489796
r855 5936 5939 0.02535
r856 5935 5938 0.02535
r857 5935 5936 0.489796
r858 5933 6037 0.1443
r859 5932 5935 0.1443
r860 5932 5933 0.489796
r861 5930 5933 0.02535
r862 5929 5932 0.02535
r863 5929 5930 0.489796
r864 5927 5930 0.02535
r865 5926 5929 0.02535
r866 5926 5927 0.489796
r867 5924 6028 0.1443
r868 5923 5926 0.1443
r869 5923 5924 0.489796
r870 5921 5924 0.02535
r871 5920 5923 0.02535
r872 5920 5921 0.489796
r873 5918 5921 0.02535
r874 5917 5920 0.02535
r875 5917 5918 0.489796
r876 5915 6019 0.1443
r877 5914 5917 1.09005
r878 5914 5915 0.489796
r879 5912 5915 0.02535
r880 5911 5914 0.02535
r881 5911 5912 0.489796
r882 5909 5912 0.02535
r883 5908 5911 0.02535
r884 5908 5909 0.489796
r885 5906 6010 0.1443
r886 5905 5908 0.1443
r887 5905 5906 0.489796
r888 5903 5906 0.02535
r889 5902 5905 0.02535
r890 5902 5903 0.489796
r891 5900 5903 0.02535
r892 5899 5902 0.02535
r893 5899 5900 0.489796
r894 5897 6001 0.1443
r895 5896 5899 0.1443
r896 5896 5897 0.489796
r897 5894 5897 0.02535
r898 5893 5896 0.02535
r899 5893 5894 0.489796
r900 5891 5894 0.02535
r901 5890 5893 0.02535
r902 5890 5891 0.489796
r903 5888 5992 0.1443
r904 5887 5890 0.1443
r905 5887 5888 0.489796
r906 5885 5888 0.02535
r907 5884 5887 0.02535
r908 5884 5885 0.489796
r909 5882 5885 0.02535
r910 5881 5884 0.02535
r911 5881 5882 0.489796
r912 5879 5983 0.1443
r913 5878 5881 0.1443
r914 5878 5879 0.489796
r915 5876 5879 0.02535
r916 5875 5878 0.02535
r917 5875 5876 0.489796
r918 5873 5876 0.02535
r919 5872 5875 0.02535
r920 5872 5873 0.489796
r921 5870 5973 0.1443
r922 5869 5872 0.1443
r923 5869 5870 0.489796
r924 5867 5870 0.02535
r925 5866 5869 0.02535
r926 5866 5867 0.489796
r927 5863 5867 0.02535
r928 5862 5866 0.02535
r929 5862 5863 0.489796
r930 5859 5963 0.1443
r931 5858 5859 0.489796
r932 5856 5859 0.02535
r933 5855 5858 0.02535
r934 5855 5856 0.489796
r935 5853 5856 0.02535
r936 5852 5855 0.02535
r937 5852 5853 0.489796
r938 5850 5954 0.1443
r939 5849 5852 0.1443
r940 5849 5850 0.489796
r941 5847 5850 0.02535
r942 5846 5849 0.02535
r943 5846 5847 0.489796
r944 5844 5847 0.02535
r945 5843 5846 0.02535
r946 5843 5844 0.489796
r947 5841 5945 0.1443
r948 5840 5843 0.1443
r949 5840 5841 0.489796
r950 5838 5841 0.02535
r951 5837 5840 0.02535
r952 5837 5838 0.489796
r953 5835 5838 0.02535
r954 5834 5837 0.02535
r955 5834 5835 0.489796
r956 5832 5936 0.1443
r957 5831 5834 0.1443
r958 5831 5832 0.489796
r959 5829 5832 0.02535
r960 5828 5831 0.02535
r961 5828 5829 0.489796
r962 5826 5829 0.02535
r963 5825 5828 0.02535
r964 5825 5826 0.489796
r965 5823 5927 0.1443
r966 5822 5825 0.1443
r967 5822 5823 0.489796
r968 5820 5823 0.02535
r969 5819 5822 0.02535
r970 5819 5820 0.489796
r971 5817 5820 0.02535
r972 5816 5819 0.02535
r973 5816 5817 0.489796
r974 5814 5918 0.1443
r975 5813 5816 0.1443
r976 5813 5814 0.489796
r977 5811 5814 0.02535
r978 5810 5813 0.02535
r979 5810 5811 0.489796
r980 5808 5811 0.02535
r981 5807 5810 0.02535
r982 5807 5808 0.489796
r983 5805 5909 0.1443
r984 5804 5807 1.09005
r985 5804 5805 0.489796
r986 5802 5805 0.02535
r987 5801 5804 0.02535
r988 5801 5802 0.489796
r989 5799 5802 0.02535
r990 5798 5801 0.02535
r991 5798 5799 0.489796
r992 5796 5900 0.1443
r993 5795 5798 0.1443
r994 5795 5796 0.489796
r995 5793 5796 0.02535
r996 5792 5795 0.02535
r997 5792 5793 0.489796
r998 5790 5793 0.02535
r999 5789 5792 0.02535
r1000 5789 5790 0.489796
r1001 5787 5891 0.1443
r1002 5786 5789 0.1443
r1003 5786 5787 0.489796
r1004 5784 5787 0.02535
r1005 5783 5786 0.02535
r1006 5783 5784 0.489796
r1007 5781 5784 0.02535
r1008 5780 5783 0.02535
r1009 5780 5781 0.489796
r1010 5778 5882 0.1443
r1011 5777 5780 0.1443
r1012 5777 5778 0.489796
r1013 5775 5778 0.02535
r1014 5774 5777 0.02535
r1015 5774 5775 0.489796
r1016 5772 5775 0.02535
r1017 5771 5774 0.02535
r1018 5771 5772 0.489796
r1019 5769 5873 0.1443
r1020 5768 5771 0.1443
r1021 5768 5769 0.489796
r1022 5766 5769 0.02535
r1023 5765 5768 0.02535
r1024 5765 5766 0.489796
r1025 5763 5766 0.02535
r1026 5762 5765 0.02535
r1027 5762 5763 0.489796
r1028 5760 5863 0.1443
r1029 5759 5762 0.1443
r1030 5759 5760 0.489796
r1031 5757 5760 0.02535
r1032 5756 5759 0.02535
r1033 5756 5757 0.489796
r1034 5753 5757 0.02535
r1035 5752 5756 0.02535
r1036 5752 5753 0.489796
r1037 5749 5853 0.1443
r1038 5748 5749 0.489796
r1039 5746 5749 0.02535
r1040 5745 5748 0.02535
r1041 5745 5746 0.489796
r1042 5743 5746 0.02535
r1043 5742 5745 0.02535
r1044 5742 5743 0.489796
r1045 5740 5844 0.1443
r1046 5739 5742 0.1443
r1047 5739 5740 0.489796
r1048 5737 5740 0.02535
r1049 5736 5739 0.02535
r1050 5736 5737 0.489796
r1051 5734 5737 0.02535
r1052 5733 5736 0.02535
r1053 5733 5734 0.489796
r1054 5731 5835 0.1443
r1055 5730 5733 0.1443
r1056 5730 5731 0.489796
r1057 5728 5731 0.02535
r1058 5727 5730 0.02535
r1059 5727 5728 0.489796
r1060 5725 5728 0.02535
r1061 5724 5727 0.02535
r1062 5724 5725 0.489796
r1063 5722 5826 0.1443
r1064 5721 5724 0.1443
r1065 5721 5722 0.489796
r1066 5719 5722 0.02535
r1067 5718 5721 0.02535
r1068 5718 5719 0.489796
r1069 5716 5719 0.02535
r1070 5715 5718 0.02535
r1071 5715 5716 0.489796
r1072 5713 5817 0.1443
r1073 5712 5715 0.1443
r1074 5712 5713 0.489796
r1075 5710 5713 0.02535
r1076 5709 5712 0.02535
r1077 5709 5710 0.489796
r1078 5707 5710 0.02535
r1079 5706 5709 0.02535
r1080 5706 5707 0.489796
r1081 5704 5808 0.1443
r1082 5703 5706 0.1443
r1083 5703 5704 0.489796
r1084 5701 5704 0.02535
r1085 5700 5703 0.02535
r1086 5700 5701 0.489796
r1087 5698 5701 0.02535
r1088 5697 5700 0.02535
r1089 5697 5698 0.489796
r1090 5695 5799 0.1443
r1091 5694 5697 1.09005
r1092 5694 5695 0.489796
r1093 5692 5695 0.02535
r1094 5691 5694 0.02535
r1095 5691 5692 0.489796
r1096 5689 5692 0.02535
r1097 5688 5691 0.02535
r1098 5688 5689 0.489796
r1099 5686 5790 0.1443