************************************************************************
* auCdl Netlist:
* 
* Library Name:  Homwork3
* Top Cell Name: RCA8
* View Name:     schematic
* Netlisted on:  May  8 19:29:24 2023
************************************************************************

*.BIPOLAR
*.RESI = 2000 
*.RESVAL
*.CAPVAL
*.DIOPERI
*.DIOAREA
*.EQUATION
*.SCALE METER
*.MEGA
*.PARAM

.GLOBAL gnd!
+        vdd!
+        GND!

*.PIN gnd!
*+    vdd!
*+    GND!

************************************************************************
* Library Name: Homwork3
* Cell Name:    INV_X2
* View Name:    schematic
************************************************************************

.SUBCKT INV_X2 in out
*.PININFO in:I out:O
MM0 out in vdd! vdd! P_18 W=1.00u L=180.00n
MM1 out in gnd! gnd! N_18 W=500.00n L=180.00n
.ENDS

************************************************************************
* Library Name: Homwork3
* Cell Name:    NAND_X1
* View Name:    schematic
************************************************************************

.SUBCKT NAND_X1 A B out
*.PININFO A:I B:I out:O
MM0 out A vdd! vdd! P_18 W=500.00n L=180.00n
MM1 out B vdd! vdd! P_18 W=500.00n L=180.00n
MM2 out A net13 gnd! N_18 W=500.00n L=180.00n
MM3 net13 B gnd! gnd! N_18 W=500.00n L=180.00n
.ENDS

************************************************************************
* Library Name: Homwork3
* Cell Name:    NAND_X2
* View Name:    schematic
************************************************************************

.SUBCKT NAND_X2 A B out
*.PININFO A:I B:I out:O
MM0 out A vdd! vdd! P_18 W=1.00u L=180.00n
MM1 out B vdd! vdd! P_18 W=1.00u L=180.00n
MM2 out A net11 gnd! N_18 W=1.00u L=180.00n
MM3 net11 B gnd! gnd! N_18 W=1.00u L=180.00n
.ENDS

************************************************************************
* Library Name: Homwork3
* Cell Name:    RCA8_DW01_add_0
* View Name:    schematic
************************************************************************

.SUBCKT RCA8_DW01_add_0 A[8] A[7] A[6] A[5] A[4] A[3] A[2] A[1] A[0] B[8] B[7] 
+ B[6] B[5] B[4] B[3] B[2] B[1] B[0] CI CO SUM[8] SUM[7] SUM[6] SUM[5] SUM[4] 
+ SUM[3] SUM[2] SUM[1] SUM[0]
*.PININFO A[8]:I A[7]:I A[6]:I A[5]:I A[4]:I A[3]:I A[2]:I A[1]:I A[0]:I 
*.PININFO B[8]:I B[7]:I B[6]:I B[5]:I B[4]:I B[3]:I B[2]:I B[1]:I B[0]:I CI:I 
*.PININFO CO:O SUM[8]:O SUM[7]:O SUM[6]:O SUM[5]:O SUM[4]:O SUM[3]:O SUM[2]:O 
*.PININFO SUM[1]:O SUM[0]:O
XU105 n107 n181 / INV_X2
XU104 n104 SUM[1] / INV_X2
XU101 n97 n177 / INV_X2
XU100 n94 SUM[2] / INV_X2
XU97 n87 n173 / INV_X2
XU96 n84 SUM[3] / INV_X2
XU93 n77 n169 / INV_X2
XU92 n74 SUM[4] / INV_X2
XU89 n67 n165 / INV_X2
XU88 n64 SUM[5] / INV_X2
XU85 n57 n161 / INV_X2
XU84 n54 SUM[6] / INV_X2
XU81 n44 SUM[7] / INV_X2
XU82 n47 n158 / INV_X2
XU117 n115 n193 / INV_X2
XU119 CI n195 / INV_X2
XU116 B[1] n192 / INV_X2
XU115 B[2] n191 / INV_X2
XU114 B[3] n190 / INV_X2
XU113 B[4] n189 / INV_X2
XU112 B[5] n188 / INV_X2
XU111 B[6] n187 / INV_X2
XU110 B[7] n186 / INV_X2
XU109 A[0] n185 / INV_X2
XU118 B[0] n194 / INV_X2
XU107 A[1] n183 / INV_X2
XU108 n101 n184 / INV_X2
XU103 A[2] n179 / INV_X2
XU106 n91 n182 / INV_X2
XU99 A[3] n175 / INV_X2
XU102 n81 n178 / INV_X2
XU95 A[4] n171 / INV_X2
XU98 n71 n174 / INV_X2
XU91 A[5] n167 / INV_X2
XU94 n61 n170 / INV_X2
XU87 A[6] n163 / INV_X2
XU90 n51 n166 / INV_X2
XU83 A[7] n159 / INV_X2
XU86 n43 n162 / INV_X2
XU11 n181 n184 n106 / NAND_X1
XU10 n107 n101 n105 / NAND_X1
XU9 n105 n106 n104 / NAND_X1
XU13 n97 n91 n95 / NAND_X1
XU14 n177 n182 n96 / NAND_X1
XU12 n95 n96 n94 / NAND_X1
XU17 n173 n178 n86 / NAND_X1
XU16 n87 n81 n85 / NAND_X1
XU15 n85 n86 n84 / NAND_X1
XU20 n169 n174 n76 / NAND_X1
XU19 n77 n71 n75 / NAND_X1
XU18 n75 n76 n74 / NAND_X1
XU22 n67 n61 n65 / NAND_X1
XU23 n165 n170 n66 / NAND_X1
XU21 n65 n66 n64 / NAND_X1
XU8 n161 n166 n56 / NAND_X1
XU7 n57 n51 n55 / NAND_X1
XU6 n55 n56 n54 / NAND_X1
XU25 n47 n43 n45 / NAND_X1
XU26 n158 n162 n46 / NAND_X1
XU24 n45 n46 n44 / NAND_X1
XU80 n193 A[0] n114 / NAND_X1
XU78 n113 n114 SUM[0] / NAND_X1
XU79 n115 n185 n113 / NAND_X1
XU75 n116 n117 n115 / NAND_X1
XU76 CI n194 n117 / NAND_X1
XU77 B[0] n195 n116 / NAND_X1
XU70 n194 n185 n110 / NAND_X1
XU69 CI n110 n109 / NAND_X1
XU67 n108 n109 n101 / NAND_X1
XU68 B[0] A[0] n108 / NAND_X1
XU45 A[1] n192 n111 / NAND_X1
XU43 n111 n112 n107 / NAND_X1
XU44 B[1] n183 n112 / NAND_X1
XU66 n184 n183 n100 / NAND_X1
XU65 B[1] n100 n99 / NAND_X1
XU64 A[1] n101 n98 / NAND_X1
XU1 n98 n99 n91 / NAND_X1
XU48 A[2] n191 n102 / NAND_X1
XU46 n102 n103 n97 / NAND_X1
XU47 B[2] n179 n103 / NAND_X1
XU30 n182 n179 n90 / NAND_X1
XU29 B[2] n90 n89 / NAND_X1
XU27 n88 n89 n81 / NAND_X1
XU28 A[2] n91 n88 / NAND_X1
XU51 A[3] n190 n92 / NAND_X1
XU49 n92 n93 n87 / NAND_X1
XU50 B[3] n175 n93 / NAND_X1
XU33 n178 n175 n80 / NAND_X1
XU32 B[3] n80 n79 / NAND_X1
XU31 A[3] n81 n78 / NAND_X1
XU54 A[4] n189 n82 / NAND_X1
XU52 n82 n83 n77 / NAND_X1
XU53 B[4] n171 n83 / NAND_X1
XU3 n174 n171 n70 / NAND_X1
XU35 B[4] n70 n69 / NAND_X1
XU34 A[4] n71 n68 / NAND_X1
XU2 n68 n69 n61 / NAND_X1
XU57 A[5] n188 n72 / NAND_X1
XU55 n72 n73 n67 / NAND_X1
XU56 B[5] n167 n73 / NAND_X1
XU39 n170 n167 n60 / NAND_X1
XU38 B[5] n60 n59 / NAND_X1
XU36 n58 n59 n51 / NAND_X1
XU37 A[5] n61 n58 / NAND_X1
XU60 A[6] n187 n62 / NAND_X1
XU58 n62 n63 n57 / NAND_X1
XU59 B[6] n163 n63 / NAND_X1
XU42 n166 n163 n50 / NAND_X1
XU41 B[6] n50 n49 / NAND_X1
XU40 A[6] n51 n48 / NAND_X1
XU4 n48 n49 n43 / NAND_X1
XU63 A[7] n186 n52 / NAND_X1
XU61 n52 n53 n47 / NAND_X1
XU62 B[7] n159 n53 / NAND_X1
XU72 A[7] n43 n40 / NAND_X1
XU71 n40 n41 SUM[8] / NAND_X1
XU73 B[7] n42 n41 / NAND_X1
XU74 n162 n159 n42 / NAND_X1
XU5 n78 n79 n71 / NAND_X2
.ENDS

************************************************************************
* Library Name: Homwork3
* Cell Name:    RCA8
* View Name:    schematic
************************************************************************

* File: RCA8.pex.sp
* Created: Tue May  9 11:23:42 2023
* Program "Calibre xRC"
* Version "v2018.2_24.18"
* 
.include "RCA8.pex.sp.pex"
.subckt RCA8  GND! VDD! CIN A[3] SUM[7] B[5] A[6] B[6] A[5] A[7] SUM[4] SUM[6]
+ B[7] B[3] SUM[1] A[0] B[2] B[1] A[2] A[1] SUM[0] SUM[2] SUM[5] B[4] A[4] COUT
+ B[0] SUM[3]
* 
* SUM[3]	SUM[3]
* B[0]	B[0]
* COUT	COUT
* A[4]	A[4]
* B[4]	B[4]
* SUM[5]	SUM[5]
* SUM[2]	SUM[2]
* SUM[0]	SUM[0]
* A[1]	A[1]
* A[2]	A[2]
* B[1]	B[1]
* B[2]	B[2]
* A[0]	A[0]
* SUM[1]	SUM[1]
* B[3]	B[3]
* B[7]	B[7]
* SUM[6]	SUM[6]
* SUM[4]	SUM[4]
* A[7]	A[7]
* A[5]	A[5]
* B[6]	B[6]
* A[6]	A[6]
* B[5]	B[5]
* SUM[7]	SUM[7]
* A[3]	A[3]
* CIN	CIN
* VDD!	VDD!
* GND!	GND!
M0 N_139_M0_d N_15_M0_g N_25_M0_s N_GND!_X26/M0_b N_18 L=1.8e-07 W=1e-06
+ AD=2.975e-13 AS=5.15e-13 PD=5.95e-07 PS=2.03e-06
M1 N_GND!_M1_d N_85_M1_g N_139_M1_s N_GND!_X26/M0_b N_18 L=1.8e-07 W=1e-06
+ AD=5.35e-13 AS=2.975e-13 PD=2.07e-06 PS=5.95e-07
M2 N_25_M2_d N_15_M2_g N_VDD!_M2_s N_VDD!_X30/M1_b P_18 L=1.8e-07 W=1e-06
+ AD=2.975e-13 AS=5.15e-13 PD=5.95e-07 PS=2.03e-06
M3 N_VDD!_M3_d N_85_M3_g N_25_M3_s N_VDD!_X30/M1_b P_18 L=1.8e-07 W=1e-06
+ AD=5.35e-13 AS=2.975e-13 PD=2.07e-06 PS=5.95e-07
mX26/M0 N_SUM[7]_X26/M0_d N_126_X26/M0_g N_GND!_X26/M0_s N_GND!_X26/M0_b N_18
+ L=1.8e-07 W=5e-07 AD=3.525e-13 AS=3.475e-13 PD=1.91e-06 PS=1.89e-06
mX26/M1 N_SUM[7]_X26/M1_d N_126_X26/M1_g N_VDD!_X26/M1_s N_VDD!_X26/M1_b P_18
+ L=1.8e-07 W=1e-06 AD=4.9e-13 AS=4.9e-13 PD=1.98e-06 PS=1.98e-06
mX27/M0 N_SUM[5]_X27/M0_d N_78_X27/M0_g N_GND!_X27/M0_s N_GND!_X26/M0_b N_18
+ L=1.8e-07 W=5e-07 AD=3.525e-13 AS=3.475e-13 PD=1.91e-06 PS=1.89e-06
mX27/M1 N_SUM[5]_X27/M1_d N_78_X27/M1_g N_VDD!_X27/M1_s N_VDD!_X27/M1_b P_18
+ L=1.8e-07 W=1e-06 AD=4.9e-13 AS=4.9e-13 PD=1.98e-06 PS=1.98e-06
mX28/M0 N_128_X28/M0_d N_12_X28/M0_g N_GND!_X28/M0_s N_GND!_X26/M0_b N_18
+ L=1.8e-07 W=5e-07 AD=3.525e-13 AS=3.475e-13 PD=1.91e-06 PS=1.89e-06
mX28/M1 N_128_X28/M1_d N_12_X28/M1_g N_VDD!_X28/M1_s N_VDD!_X28/M1_b P_18
+ L=1.8e-07 W=1e-06 AD=4.9e-13 AS=4.9e-13 PD=1.98e-06 PS=1.98e-06
mX29/M0 N_9_X29/M0_d N_B[5]_X29/M0_g N_GND!_X29/M0_s N_GND!_X26/M0_b N_18
+ L=1.8e-07 W=5e-07 AD=3.525e-13 AS=3.475e-13 PD=1.91e-06 PS=1.89e-06
mX29/M1 N_9_X29/M1_d N_B[5]_X29/M1_g N_VDD!_X29/M1_s N_VDD!_X28/M1_b P_18
+ L=1.8e-07 W=1e-06 AD=4.9e-13 AS=4.9e-13 PD=1.98e-06 PS=1.98e-06
mX30/M0 N_76_X30/M0_d N_B[6]_X30/M0_g N_GND!_X30/M0_s N_GND!_X26/M0_b N_18
+ L=1.8e-07 W=5e-07 AD=3.525e-13 AS=3.475e-13 PD=1.91e-06 PS=1.89e-06
mX30/M1 N_76_X30/M1_d N_B[6]_X30/M1_g N_VDD!_X30/M1_s N_VDD!_X30/M1_b P_18
+ L=1.8e-07 W=1e-06 AD=4.9e-13 AS=4.9e-13 PD=1.98e-06 PS=1.98e-06
mX31/M0 N_82_X31/M0_d N_87_X31/M0_g N_GND!_X31/M0_s N_GND!_X26/M0_b N_18
+ L=1.8e-07 W=5e-07 AD=3.525e-13 AS=3.475e-13 PD=1.91e-06 PS=1.89e-06
mX31/M1 N_82_X31/M1_d N_87_X31/M1_g N_VDD!_X31/M1_s N_VDD!_X28/M1_b P_18
+ L=1.8e-07 W=1e-06 AD=4.9e-13 AS=4.9e-13 PD=1.98e-06 PS=1.98e-06
mX32/M0 N_83_X32/M0_d N_25_X32/M0_g N_GND!_X32/M0_s N_GND!_X26/M0_b N_18
+ L=1.8e-07 W=5e-07 AD=3.525e-13 AS=3.475e-13 PD=1.91e-06 PS=1.89e-06
mX32/M1 N_83_X32/M1_d N_25_X32/M1_g N_VDD!_X32/M1_s N_VDD!_X26/M1_b P_18
+ L=1.8e-07 W=1e-06 AD=4.9e-13 AS=4.9e-13 PD=1.98e-06 PS=1.98e-06
mX33/M0 N_10_X33/M0_d N_A[5]_X33/M0_g N_GND!_X33/M0_s N_GND!_X26/M0_b N_18
+ L=1.8e-07 W=5e-07 AD=3.525e-13 AS=3.475e-13 PD=1.91e-06 PS=1.89e-06
mX33/M1 N_10_X33/M1_d N_A[5]_X33/M1_g N_VDD!_X33/M1_s N_VDD!_X33/M1_b P_18
+ L=1.8e-07 W=1e-06 AD=4.9e-13 AS=4.9e-13 PD=1.98e-06 PS=1.98e-06
mX34/M0 N_16_X34/M0_d N_A[6]_X34/M0_g N_GND!_X34/M0_s N_GND!_X26/M0_b N_18
+ L=1.8e-07 W=5e-07 AD=3.525e-13 AS=3.475e-13 PD=1.91e-06 PS=1.89e-06
mX34/M1 N_16_X34/M1_d N_A[6]_X34/M1_g N_VDD!_X34/M1_s N_VDD!_X30/M1_b P_18
+ L=1.8e-07 W=1e-06 AD=4.9e-13 AS=4.9e-13 PD=1.98e-06 PS=1.98e-06
mX35/M0 N_131_X35/M0_d N_13_X35/M0_g N_GND!_X35/M0_s N_GND!_X26/M0_b N_18
+ L=1.8e-07 W=5e-07 AD=3.525e-13 AS=3.475e-13 PD=1.91e-06 PS=1.89e-06
mX35/M1 N_131_X35/M1_d N_13_X35/M1_g N_VDD!_X35/M1_s N_VDD!_X26/M1_b P_18
+ L=1.8e-07 W=1e-06 AD=4.9e-13 AS=4.9e-13 PD=1.98e-06 PS=1.98e-06
mX36/M0 N_28_X36/M0_d N_B[4]_X36/M0_g N_GND!_X36/M0_s N_GND!_X26/M0_b N_18
+ L=1.8e-07 W=5e-07 AD=3.525e-13 AS=3.475e-13 PD=1.91e-06 PS=1.89e-06
mX36/M1 N_28_X36/M1_d N_B[4]_X36/M1_g N_VDD!_X36/M1_s N_VDD!_X27/M1_b P_18
+ L=1.8e-07 W=1e-06 AD=4.9e-13 AS=4.9e-13 PD=1.98e-06 PS=1.98e-06
mX37/M0 N_30_X37/M0_d N_21_X37/M0_g N_GND!_X37/M0_s N_GND!_X26/M0_b N_18
+ L=1.8e-07 W=5e-07 AD=3.525e-13 AS=3.475e-13 PD=1.91e-06 PS=1.89e-06
mX37/M1 N_30_X37/M1_d N_21_X37/M1_g N_VDD!_X37/M1_s N_VDD!_X33/M1_b P_18
+ L=1.8e-07 W=1e-06 AD=4.9e-13 AS=4.9e-13 PD=1.98e-06 PS=1.98e-06
mX38/M0 N_93_X38/M0_d N_A[7]_X38/M0_g N_GND!_X38/M0_s N_GND!_X26/M0_b N_18
+ L=1.8e-07 W=5e-07 AD=3.525e-13 AS=3.475e-13 PD=1.91e-06 PS=1.89e-06
mX38/M1 N_93_X38/M1_d N_A[7]_X38/M1_g N_VDD!_X38/M1_s N_VDD!_X26/M1_b P_18
+ L=1.8e-07 W=1e-06 AD=4.9e-13 AS=4.9e-13 PD=1.98e-06 PS=1.98e-06
mX39/M0 N_133_X39/M0_d N_20_X39/M0_g N_GND!_X39/M0_s N_GND!_X26/M0_b N_18
+ L=1.8e-07 W=5e-07 AD=3.525e-13 AS=3.475e-13 PD=1.91e-06 PS=1.89e-06
mX39/M1 N_133_X39/M1_d N_20_X39/M1_g N_VDD!_X39/M1_s N_VDD!_X30/M1_b P_18
+ L=1.8e-07 W=1e-06 AD=4.9e-13 AS=4.9e-13 PD=1.98e-06 PS=1.98e-06
mX40/M0 N_91_X40/M0_d N_A[4]_X40/M0_g N_GND!_X40/M0_s N_GND!_X26/M0_b N_18
+ L=1.8e-07 W=5e-07 AD=3.525e-13 AS=3.475e-13 PD=1.91e-06 PS=1.89e-06
mX40/M1 N_91_X40/M1_d N_A[4]_X40/M1_g N_VDD!_X40/M1_s N_VDD!_X27/M1_b P_18
+ L=1.8e-07 W=1e-06 AD=4.9e-13 AS=4.9e-13 PD=1.98e-06 PS=1.98e-06
mX41/M0 N_SUM[4]_X41/M0_d N_96_X41/M0_g N_GND!_X41/M0_s N_GND!_X26/M0_b N_18
+ L=1.8e-07 W=5e-07 AD=3.525e-13 AS=3.475e-13 PD=1.91e-06 PS=1.89e-06
mX41/M1 N_SUM[4]_X41/M1_d N_96_X41/M1_g N_VDD!_X41/M1_s N_VDD!_X28/M1_b P_18
+ L=1.8e-07 W=1e-06 AD=4.9e-13 AS=4.9e-13 PD=1.98e-06 PS=1.98e-06
mX42/M0 N_92_X42/M0_d N_100_X42/M0_g N_GND!_X42/M0_s N_GND!_X26/M0_b N_18
+ L=1.8e-07 W=5e-07 AD=3.525e-13 AS=3.475e-13 PD=1.91e-06 PS=1.89e-06
mX42/M1 N_92_X42/M1_d N_100_X42/M1_g N_VDD!_X42/M1_s N_VDD!_X33/M1_b P_18
+ L=1.8e-07 W=1e-06 AD=4.9e-13 AS=4.9e-13 PD=1.98e-06 PS=1.98e-06
mX43/M0 N_95_X43/M0_d N_29_X43/M0_g N_GND!_X43/M0_s N_GND!_X26/M0_b N_18
+ L=1.8e-07 W=5e-07 AD=3.525e-13 AS=3.475e-13 PD=1.91e-06 PS=1.89e-06
mX43/M1 N_95_X43/M1_d N_29_X43/M1_g N_VDD!_X43/M1_s N_VDD!_X28/M1_b P_18
+ L=1.8e-07 W=1e-06 AD=4.9e-13 AS=4.9e-13 PD=1.98e-06 PS=1.98e-06
mX44/M0 N_SUM[6]_X44/M0_d N_34_X44/M0_g N_GND!_X44/M0_s N_GND!_X26/M0_b N_18
+ L=1.8e-07 W=5e-07 AD=3.525e-13 AS=3.475e-13 PD=1.91e-06 PS=1.89e-06
mX44/M1 N_SUM[6]_X44/M1_d N_34_X44/M1_g N_VDD!_X44/M1_s N_VDD!_X33/M1_b P_18
+ L=1.8e-07 W=1e-06 AD=4.9e-13 AS=4.9e-13 PD=1.98e-06 PS=1.98e-06
mX45/M0 N_32_X45/M0_d N_B[7]_X45/M0_g N_GND!_X45/M0_s N_GND!_X26/M0_b N_18
+ L=1.8e-07 W=5e-07 AD=3.525e-13 AS=3.475e-13 PD=1.91e-06 PS=1.89e-06
mX45/M1 N_32_X45/M1_d N_B[7]_X45/M1_g N_VDD!_X45/M1_s N_VDD!_X26/M1_b P_18
+ L=1.8e-07 W=1e-06 AD=4.9e-13 AS=4.9e-13 PD=1.98e-06 PS=1.98e-06
mX46/M0 N_SUM[2]_X46/M0_d N_104_X46/M0_g N_GND!_X46/M0_s N_GND!_X26/M0_b N_18
+ L=1.8e-07 W=5e-07 AD=3.525e-13 AS=3.475e-13 PD=1.91e-06 PS=1.89e-06
mX46/M1 N_SUM[2]_X46/M1_d N_104_X46/M1_g N_VDD!_X46/M1_s N_VDD!_X33/M1_b P_18
+ L=1.8e-07 W=1e-06 AD=4.9e-13 AS=4.9e-13 PD=1.98e-06 PS=1.98e-06
mX47/M0 N_41_X47/M0_d N_CIN_X47/M0_g N_GND!_X47/M0_s N_GND!_X26/M0_b N_18
+ L=1.8e-07 W=5e-07 AD=3.525e-13 AS=3.475e-13 PD=1.91e-06 PS=1.89e-06
mX47/M1 N_41_X47/M1_d N_CIN_X47/M1_g N_VDD!_X47/M1_s N_VDD!_X26/M1_b P_18
+ L=1.8e-07 W=1e-06 AD=4.9e-13 AS=4.9e-13 PD=1.98e-06 PS=1.98e-06
mX48/M0 N_46_X48/M0_d N_55_X48/M0_g N_GND!_X48/M0_s N_GND!_X26/M0_b N_18
+ L=1.8e-07 W=5e-07 AD=3.525e-13 AS=3.475e-13 PD=1.91e-06 PS=1.89e-06
mX48/M1 N_46_X48/M1_d N_55_X48/M1_g N_VDD!_X48/M1_s N_VDD!_X30/M1_b P_18
+ L=1.8e-07 W=1e-06 AD=4.9e-13 AS=4.9e-13 PD=1.98e-06 PS=1.98e-06
mX49/M0 N_SUM[1]_X49/M0_d N_105_X49/M0_g N_GND!_X49/M0_s N_GND!_X26/M0_b N_18
+ L=1.8e-07 W=5e-07 AD=3.525e-13 AS=3.475e-13 PD=1.91e-06 PS=1.89e-06
mX49/M1 N_SUM[1]_X49/M1_d N_105_X49/M1_g N_VDD!_X49/M1_s N_VDD!_X30/M1_b P_18
+ L=1.8e-07 W=1e-06 AD=4.9e-13 AS=4.9e-13 PD=1.98e-06 PS=1.98e-06
mX50/M0 N_106_X50/M0_d N_B[3]_X50/M0_g N_GND!_X50/M0_s N_GND!_X26/M0_b N_18
+ L=1.8e-07 W=5e-07 AD=3.525e-13 AS=3.475e-13 PD=1.91e-06 PS=1.89e-06
mX50/M1 N_106_X50/M1_d N_B[3]_X50/M1_g N_VDD!_X50/M1_s N_VDD!_X28/M1_b P_18
+ L=1.8e-07 W=1e-06 AD=4.9e-13 AS=4.9e-13 PD=1.98e-06 PS=1.98e-06
mX51/M0 N_42_X51/M0_d N_110_X51/M0_g N_GND!_X51/M0_s N_GND!_X26/M0_b N_18
+ L=1.8e-07 W=5e-07 AD=3.525e-13 AS=3.475e-13 PD=1.91e-06 PS=1.89e-06
mX51/M1 N_42_X51/M1_d N_110_X51/M1_g N_VDD!_X51/M1_s N_VDD!_X33/M1_b P_18
+ L=1.8e-07 W=1e-06 AD=4.9e-13 AS=4.9e-13 PD=1.98e-06 PS=1.98e-06
mX52/M0 N_112_X52/M0_d N_A[3]_X52/M0_g N_GND!_X52/M0_s N_GND!_X26/M0_b N_18
+ L=1.8e-07 W=5e-07 AD=3.525e-13 AS=3.475e-13 PD=1.91e-06 PS=1.89e-06
mX52/M1 N_112_X52/M1_d N_A[3]_X52/M1_g N_VDD!_X52/M1_s N_VDD!_X28/M1_b P_18
+ L=1.8e-07 W=1e-06 AD=4.9e-13 AS=4.9e-13 PD=1.98e-06 PS=1.98e-06
mX53/M0 N_48_X53/M0_d N_69_X53/M0_g N_GND!_X53/M0_s N_GND!_X26/M0_b N_18
+ L=1.8e-07 W=5e-07 AD=3.525e-13 AS=3.475e-13 PD=1.91e-06 PS=1.89e-06
mX53/M1 N_48_X53/M1_d N_69_X53/M1_g N_VDD!_X53/M1_s N_VDD!_X33/M1_b P_18
+ L=1.8e-07 W=1e-06 AD=4.9e-13 AS=4.9e-13 PD=1.98e-06 PS=1.98e-06
mX54/M0 N_54_X54/M0_d N_B[0]_X54/M0_g N_GND!_X54/M0_s N_GND!_X26/M0_b N_18
+ L=1.8e-07 W=5e-07 AD=3.525e-13 AS=3.475e-13 PD=1.91e-06 PS=1.89e-06
mX54/M1 N_54_X54/M1_d N_B[0]_X54/M1_g N_VDD!_X54/M1_s N_VDD!_X26/M1_b P_18
+ L=1.8e-07 W=1e-06 AD=4.9e-13 AS=4.9e-13 PD=1.98e-06 PS=1.98e-06
mX55/M0 N_137_X55/M0_d N_45_X55/M0_g N_GND!_X55/M0_s N_GND!_X26/M0_b N_18
+ L=1.8e-07 W=5e-07 AD=3.525e-13 AS=3.475e-13 PD=1.91e-06 PS=1.89e-06
mX55/M1 N_137_X55/M1_d N_45_X55/M1_g N_VDD!_X55/M1_s N_VDD!_X30/M1_b P_18
+ L=1.8e-07 W=1e-06 AD=4.9e-13 AS=4.9e-13 PD=1.98e-06 PS=1.98e-06
mX56/M0 N_58_X56/M0_d N_A[1]_X56/M0_g N_GND!_X56/M0_s N_GND!_X26/M0_b N_18
+ L=1.8e-07 W=5e-07 AD=3.525e-13 AS=3.475e-13 PD=1.91e-06 PS=1.89e-06
mX56/M1 N_58_X56/M1_d N_A[1]_X56/M1_g N_VDD!_X56/M1_s N_VDD!_X30/M1_b P_18
+ L=1.8e-07 W=1e-06 AD=4.9e-13 AS=4.9e-13 PD=1.98e-06 PS=1.98e-06
mX57/M0 N_64_X57/M0_d N_108_X57/M0_g N_GND!_X57/M0_s N_GND!_X26/M0_b N_18
+ L=1.8e-07 W=5e-07 AD=3.525e-13 AS=3.475e-13 PD=1.91e-06 PS=1.89e-06
mX57/M1 N_64_X57/M1_d N_108_X57/M1_g N_VDD!_X57/M1_s N_VDD!_X28/M1_b P_18
+ L=1.8e-07 W=1e-06 AD=4.9e-13 AS=4.9e-13 PD=1.98e-06 PS=1.98e-06
mX58/M0 N_114_X58/M0_d N_A[2]_X58/M0_g N_GND!_X58/M0_s N_GND!_X26/M0_b N_18
+ L=1.8e-07 W=5e-07 AD=3.525e-13 AS=3.475e-13 PD=1.91e-06 PS=1.89e-06
mX58/M1 N_114_X58/M1_d N_A[2]_X58/M1_g N_VDD!_X58/M1_s N_VDD!_X33/M1_b P_18
+ L=1.8e-07 W=1e-06 AD=4.9e-13 AS=4.9e-13 PD=1.98e-06 PS=1.98e-06
mX59/M0 N_113_X59/M0_d N_A[0]_X59/M0_g N_GND!_X59/M0_s N_GND!_X26/M0_b N_18
+ L=1.8e-07 W=5e-07 AD=3.525e-13 AS=3.475e-13 PD=1.91e-06 PS=1.89e-06
mX59/M1 N_113_X59/M1_d N_A[0]_X59/M1_g N_VDD!_X59/M1_s N_VDD!_X26/M1_b P_18
+ L=1.8e-07 W=1e-06 AD=4.9e-13 AS=4.9e-13 PD=1.98e-06 PS=1.98e-06
mX60/M0 N_118_X60/M0_d N_63_X60/M0_g N_GND!_X60/M0_s N_GND!_X26/M0_b N_18
+ L=1.8e-07 W=5e-07 AD=3.525e-13 AS=3.475e-13 PD=1.91e-06 PS=1.89e-06
mX60/M1 N_118_X60/M1_d N_63_X60/M1_g N_VDD!_X60/M1_s N_VDD!_X26/M1_b P_18
+ L=1.8e-07 W=1e-06 AD=4.9e-13 AS=4.9e-13 PD=1.98e-06 PS=1.98e-06
mX61/M0 N_119_X61/M0_d N_B[2]_X61/M0_g N_GND!_X61/M0_s N_GND!_X26/M0_b N_18
+ L=1.8e-07 W=5e-07 AD=3.525e-13 AS=3.475e-13 PD=1.91e-06 PS=1.89e-06
mX61/M1 N_119_X61/M1_d N_B[2]_X61/M1_g N_VDD!_X61/M1_s N_VDD!_X33/M1_b P_18
+ L=1.8e-07 W=1e-06 AD=4.9e-13 AS=4.9e-13 PD=1.98e-06 PS=1.98e-06
mX62/M0 N_125_X62/M0_d N_B[1]_X62/M0_g N_GND!_X62/M0_s N_GND!_X26/M0_b N_18
+ L=1.8e-07 W=5e-07 AD=3.525e-13 AS=3.475e-13 PD=1.91e-06 PS=1.89e-06
mX62/M1 N_125_X62/M1_d N_B[1]_X62/M1_g N_VDD!_X62/M1_s N_VDD!_X30/M1_b P_18
+ L=1.8e-07 W=1e-06 AD=4.9e-13 AS=4.9e-13 PD=1.98e-06 PS=1.98e-06
mX63/M0 N_SUM[3]_X63/M0_d N_121_X63/M0_g N_GND!_X63/M0_s N_GND!_X26/M0_b N_18
+ L=1.8e-07 W=5e-07 AD=3.525e-13 AS=3.475e-13 PD=1.91e-06 PS=1.89e-06
mX63/M1 N_SUM[3]_X63/M1_d N_121_X63/M1_g N_VDD!_X63/M1_s N_VDD!_X27/M1_b P_18
+ L=1.8e-07 W=1e-06 AD=4.9e-13 AS=4.9e-13 PD=1.98e-06 PS=1.98e-06
mX64/M0 N_138_X64/M0_d N_68_X64/M0_g N_GND!_X64/M0_s N_GND!_X26/M0_b N_18
+ L=1.8e-07 W=5e-07 AD=3.525e-13 AS=3.475e-13 PD=1.91e-06 PS=1.89e-06
mX64/M1 N_138_X64/M1_d N_68_X64/M1_g N_VDD!_X64/M1_s N_VDD!_X28/M1_b P_18
+ L=1.8e-07 W=1e-06 AD=4.9e-13 AS=4.9e-13 PD=1.98e-06 PS=1.98e-06
mX85/M0 N_X85/6_X85/M0_d N_128_X85/M0_g N_GND!_X85/M0_s N_GND!_X26/M0_b N_18
+ L=1.8e-07 W=5e-07 AD=1.4e-13 AS=2.85e-13 PD=5.6e-07 PS=1.64e-06
mX85/M1 N_79_X85/M1_d N_82_X85/M1_g N_X85/6_X85/M1_s N_GND!_X26/M0_b N_18
+ L=1.8e-07 W=5e-07 AD=3.025e-13 AS=1.4e-13 PD=1.71e-06 PS=5.6e-07
mX85/M2 N_79_X85/M2_d N_128_X85/M2_g N_VDD!_X85/M2_s N_VDD!_X28/M1_b P_18
+ L=1.8e-07 W=5e-07 AD=1.4e-13 AS=2.85e-13 PD=5.6e-07 PS=1.64e-06
mX85/M3 N_VDD!_X85/M3_d N_82_X85/M3_g N_79_X85/M3_s N_VDD!_X28/M1_b P_18
+ L=1.8e-07 W=5e-07 AD=3.025e-13 AS=1.4e-13 PD=1.71e-06 PS=5.6e-07
mX86/M0 N_X86/6_X86/M0_d N_13_X86/M0_g N_GND!_X86/M0_s N_GND!_X26/M0_b N_18
+ L=1.8e-07 W=5e-07 AD=1.4e-13 AS=2.85e-13 PD=5.6e-07 PS=1.64e-06
mX86/M1 N_8_X86/M1_d N_25_X86/M1_g N_X86/6_X86/M1_s N_GND!_X26/M0_b N_18
+ L=1.8e-07 W=5e-07 AD=3.025e-13 AS=1.4e-13 PD=1.71e-06 PS=5.6e-07
mX86/M2 N_8_X86/M2_d N_13_X86/M2_g N_VDD!_X86/M2_s N_VDD!_X26/M1_b P_18
+ L=1.8e-07 W=5e-07 AD=1.4e-13 AS=2.85e-13 PD=5.6e-07 PS=1.64e-06
mX86/M3 N_VDD!_X86/M3_d N_25_X86/M3_g N_8_X86/M3_s N_VDD!_X26/M1_b P_18
+ L=1.8e-07 W=5e-07 AD=3.025e-13 AS=1.4e-13 PD=1.71e-06 PS=5.6e-07
mX87/M0 N_X87/6_X87/M0_d N_B[5]_X87/M0_g N_GND!_X87/M0_s N_GND!_X26/M0_b N_18
+ L=1.8e-07 W=5e-07 AD=1.4e-13 AS=2.85e-13 PD=5.6e-07 PS=1.64e-06
mX87/M1 N_86_X87/M1_d N_81_X87/M1_g N_X87/6_X87/M1_s N_GND!_X26/M0_b N_18
+ L=1.8e-07 W=5e-07 AD=3.025e-13 AS=1.4e-13 PD=1.71e-06 PS=5.6e-07
mX87/M2 N_86_X87/M2_d N_B[5]_X87/M2_g N_VDD!_X87/M2_s N_VDD!_X33/M1_b P_18
+ L=1.8e-07 W=5e-07 AD=1.4e-13 AS=2.85e-13 PD=5.6e-07 PS=1.64e-06
mX87/M3 N_VDD!_X87/M3_d N_81_X87/M3_g N_86_X87/M3_s N_VDD!_X33/M1_b P_18
+ L=1.8e-07 W=5e-07 AD=3.025e-13 AS=1.4e-13 PD=1.71e-06 PS=5.6e-07
mX88/M0 N_X88/6_X88/M0_d N_A[6]_X88/M0_g N_GND!_X88/M0_s N_GND!_X26/M0_b N_18
+ L=1.8e-07 W=5e-07 AD=1.4e-13 AS=2.85e-13 PD=5.6e-07 PS=1.64e-06
mX88/M1 N_85_X88/M1_d N_21_X88/M1_g N_X88/6_X88/M1_s N_GND!_X26/M0_b N_18
+ L=1.8e-07 W=5e-07 AD=3.025e-13 AS=1.4e-13 PD=1.71e-06 PS=5.6e-07
mX88/M2 N_85_X88/M2_d N_A[6]_X88/M2_g N_VDD!_X88/M2_s N_VDD!_X30/M1_b P_18
+ L=1.8e-07 W=5e-07 AD=1.4e-13 AS=2.85e-13 PD=5.6e-07 PS=1.64e-06
mX88/M3 N_VDD!_X88/M3_d N_21_X88/M3_g N_85_X88/M3_s N_VDD!_X30/M1_b P_18
+ L=1.8e-07 W=5e-07 AD=3.025e-13 AS=1.4e-13 PD=1.71e-06 PS=5.6e-07
mX89/M0 N_X89/6_X89/M0_d N_88_X89/M0_g N_GND!_X89/M0_s N_GND!_X26/M0_b N_18
+ L=1.8e-07 W=5e-07 AD=1.4e-13 AS=2.85e-13 PD=5.6e-07 PS=1.64e-06
mX89/M1 N_21_X89/M1_d N_86_X89/M1_g N_X89/6_X89/M1_s N_GND!_X26/M0_b N_18
+ L=1.8e-07 W=5e-07 AD=3.025e-13 AS=1.4e-13 PD=1.71e-06 PS=5.6e-07
mX89/M2 N_21_X89/M2_d N_88_X89/M2_g N_VDD!_X89/M2_s N_VDD!_X33/M1_b P_18
+ L=1.8e-07 W=5e-07 AD=1.4e-13 AS=2.85e-13 PD=5.6e-07 PS=1.64e-06
mX89/M3 N_VDD!_X89/M3_d N_86_X89/M3_g N_21_X89/M3_s N_VDD!_X33/M1_b P_18
+ L=1.8e-07 W=5e-07 AD=3.025e-13 AS=1.4e-13 PD=1.71e-06 PS=5.6e-07
mX90/M0 N_X90/6_X90/M0_d N_B[6]_X90/M0_g N_GND!_X90/M0_s N_GND!_X26/M0_b N_18
+ L=1.8e-07 W=5e-07 AD=1.4e-13 AS=2.85e-13 PD=5.6e-07 PS=1.64e-06
mX90/M1 N_15_X90/M1_d N_19_X90/M1_g N_X90/6_X90/M1_s N_GND!_X26/M0_b N_18
+ L=1.8e-07 W=5e-07 AD=3.025e-13 AS=1.4e-13 PD=1.71e-06 PS=5.6e-07
mX90/M2 N_15_X90/M2_d N_B[6]_X90/M2_g N_VDD!_X90/M2_s N_VDD!_X30/M1_b P_18
+ L=1.8e-07 W=5e-07 AD=1.4e-13 AS=2.85e-13 PD=5.6e-07 PS=1.64e-06
mX90/M3 N_VDD!_X90/M3_d N_19_X90/M3_g N_15_X90/M3_s N_VDD!_X30/M1_b P_18
+ L=1.8e-07 W=5e-07 AD=3.025e-13 AS=1.4e-13 PD=1.71e-06 PS=5.6e-07
mX91/M0 N_X91/6_X91/M0_d N_A[5]_X91/M0_g N_GND!_X91/M0_s N_GND!_X26/M0_b N_18
+ L=1.8e-07 W=5e-07 AD=1.4e-13 AS=2.85e-13 PD=5.6e-07 PS=1.64e-06
mX91/M1 N_88_X91/M1_d N_87_X91/M1_g N_X91/6_X91/M1_s N_GND!_X26/M0_b N_18
+ L=1.8e-07 W=5e-07 AD=3.025e-13 AS=1.4e-13 PD=1.71e-06 PS=5.6e-07
mX91/M2 N_88_X91/M2_d N_A[5]_X91/M2_g N_VDD!_X91/M2_s N_VDD!_X33/M1_b P_18
+ L=1.8e-07 W=5e-07 AD=1.4e-13 AS=2.85e-13 PD=5.6e-07 PS=1.64e-06
mX91/M3 N_VDD!_X91/M3_d N_87_X91/M3_g N_88_X91/M3_s N_VDD!_X33/M1_b P_18
+ L=1.8e-07 W=5e-07 AD=3.025e-13 AS=1.4e-13 PD=1.71e-06 PS=5.6e-07
mX92/M0 N_X92/6_X92/M0_d N_132_X92/M0_g N_GND!_X92/M0_s N_GND!_X26/M0_b N_18
+ L=1.8e-07 W=5e-07 AD=1.4e-13 AS=2.85e-13 PD=5.6e-07 PS=1.64e-06
mX92/M1 N_13_X92/M1_d N_26_X92/M1_g N_X92/6_X92/M1_s N_GND!_X26/M0_b N_18
+ L=1.8e-07 W=5e-07 AD=3.025e-13 AS=1.4e-13 PD=1.71e-06 PS=5.6e-07
mX92/M2 N_13_X92/M2_d N_132_X92/M2_g N_VDD!_X92/M2_s N_VDD!_X26/M1_b P_18
+ L=1.8e-07 W=5e-07 AD=1.4e-13 AS=2.85e-13 PD=5.6e-07 PS=1.64e-06
mX92/M3 N_VDD!_X92/M3_d N_26_X92/M3_g N_13_X92/M3_s N_VDD!_X26/M1_b P_18
+ L=1.8e-07 W=5e-07 AD=3.025e-13 AS=1.4e-13 PD=1.71e-06 PS=5.6e-07
mX93/M0 N_X93/6_X93/M0_d N_A[7]_X93/M0_g N_GND!_X93/M0_s N_GND!_X26/M0_b N_18
+ L=1.8e-07 W=5e-07 AD=1.4e-13 AS=2.85e-13 PD=5.6e-07 PS=1.64e-06
mX93/M1 N_132_X93/M1_d N_32_X93/M1_g N_X93/6_X93/M1_s N_GND!_X26/M0_b N_18
+ L=1.8e-07 W=5e-07 AD=3.025e-13 AS=1.4e-13 PD=1.71e-06 PS=5.6e-07
mX93/M2 N_132_X93/M2_d N_A[7]_X93/M2_g N_VDD!_X93/M2_s N_VDD!_X26/M1_b P_18
+ L=1.8e-07 W=5e-07 AD=1.4e-13 AS=2.85e-13 PD=5.6e-07 PS=1.64e-06
mX93/M3 N_VDD!_X93/M3_d N_32_X93/M3_g N_132_X93/M3_s N_VDD!_X26/M1_b P_18
+ L=1.8e-07 W=5e-07 AD=3.025e-13 AS=1.4e-13 PD=1.71e-06 PS=5.6e-07
mX94/M0 N_X94/6_X94/M0_d N_20_X94/M0_g N_GND!_X94/M0_s N_GND!_X26/M0_b N_18
+ L=1.8e-07 W=5e-07 AD=1.4e-13 AS=2.85e-13 PD=5.6e-07 PS=1.64e-06
mX94/M1 N_36_X94/M1_d N_21_X94/M1_g N_X94/6_X94/M1_s N_GND!_X26/M0_b N_18
+ L=1.8e-07 W=5e-07 AD=3.025e-13 AS=1.4e-13 PD=1.71e-06 PS=5.6e-07
mX94/M2 N_36_X94/M2_d N_20_X94/M2_g N_VDD!_X94/M2_s N_VDD!_X30/M1_b P_18
+ L=1.8e-07 W=5e-07 AD=1.4e-13 AS=2.85e-13 PD=5.6e-07 PS=1.64e-06
mX94/M3 N_VDD!_X94/M3_d N_21_X94/M3_g N_36_X94/M3_s N_VDD!_X30/M1_b P_18
+ L=1.8e-07 W=5e-07 AD=3.025e-13 AS=1.4e-13 PD=1.71e-06 PS=5.6e-07
mX95/M0 N_X95/6_X95/M0_d N_95_X95/M0_g N_GND!_X95/M0_s N_GND!_X26/M0_b N_18
+ L=1.8e-07 W=5e-07 AD=1.4e-13 AS=2.85e-13 PD=5.6e-07 PS=1.64e-06
mX95/M1 N_89_X95/M1_d N_91_X95/M1_g N_X95/6_X95/M1_s N_GND!_X26/M0_b N_18
+ L=1.8e-07 W=5e-07 AD=3.025e-13 AS=1.4e-13 PD=1.71e-06 PS=5.6e-07
mX95/M2 N_89_X95/M2_d N_95_X95/M2_g N_VDD!_X95/M2_s N_VDD!_X28/M1_b P_18
+ L=1.8e-07 W=5e-07 AD=1.4e-13 AS=2.85e-13 PD=5.6e-07 PS=1.64e-06
mX95/M3 N_VDD!_X95/M3_d N_91_X95/M3_g N_89_X95/M3_s N_VDD!_X28/M1_b P_18
+ L=1.8e-07 W=5e-07 AD=3.025e-13 AS=1.4e-13 PD=1.71e-06 PS=5.6e-07
mX96/M0 N_X96/6_X96/M0_d N_B[4]_X96/M0_g N_GND!_X96/M0_s N_GND!_X26/M0_b N_18
+ L=1.8e-07 W=5e-07 AD=1.4e-13 AS=2.85e-13 PD=5.6e-07 PS=1.64e-06
mX96/M1 N_31_X96/M1_d N_91_X96/M1_g N_X96/6_X96/M1_s N_GND!_X26/M0_b N_18
+ L=1.8e-07 W=5e-07 AD=3.025e-13 AS=1.4e-13 PD=1.71e-06 PS=5.6e-07
mX96/M2 N_31_X96/M2_d N_B[4]_X96/M2_g N_VDD!_X96/M2_s N_VDD!_X28/M1_b P_18
+ L=1.8e-07 W=5e-07 AD=1.4e-13 AS=2.85e-13 PD=5.6e-07 PS=1.64e-06
mX96/M3 N_VDD!_X96/M3_d N_91_X96/M3_g N_31_X96/M3_s N_VDD!_X28/M1_b P_18
+ L=1.8e-07 W=5e-07 AD=3.025e-13 AS=1.4e-13 PD=1.71e-06 PS=5.6e-07
mX97/M0 N_X97/6_X97/M0_d N_92_X97/M0_g N_GND!_X97/M0_s N_GND!_X26/M0_b N_18
+ L=1.8e-07 W=5e-07 AD=1.4e-13 AS=2.85e-13 PD=5.6e-07 PS=1.64e-06
mX97/M1 N_94_X97/M1_d N_95_X97/M1_g N_X97/6_X97/M1_s N_GND!_X26/M0_b N_18
+ L=1.8e-07 W=5e-07 AD=3.025e-13 AS=1.4e-13 PD=1.71e-06 PS=5.6e-07
mX97/M2 N_94_X97/M2_d N_92_X97/M2_g N_VDD!_X97/M2_s N_VDD!_X33/M1_b P_18
+ L=1.8e-07 W=5e-07 AD=1.4e-13 AS=2.85e-13 PD=5.6e-07 PS=1.64e-06
mX97/M3 N_VDD!_X97/M3_d N_95_X97/M3_g N_94_X97/M3_s N_VDD!_X33/M1_b P_18
+ L=1.8e-07 W=5e-07 AD=3.025e-13 AS=1.4e-13 PD=1.71e-06 PS=5.6e-07
mX98/M0 N_X98/6_X98/M0_d N_B[7]_X98/M0_g N_GND!_X98/M0_s N_GND!_X26/M0_b N_18
+ L=1.8e-07 W=5e-07 AD=1.4e-13 AS=2.85e-13 PD=5.6e-07 PS=1.64e-06
mX98/M1 N_26_X98/M1_d N_93_X98/M1_g N_X98/6_X98/M1_s N_GND!_X26/M0_b N_18
+ L=1.8e-07 W=5e-07 AD=3.025e-13 AS=1.4e-13 PD=1.71e-06 PS=5.6e-07
mX98/M2 N_26_X98/M2_d N_B[7]_X98/M2_g N_VDD!_X98/M2_s N_VDD!_X26/M1_b P_18
+ L=1.8e-07 W=5e-07 AD=1.4e-13 AS=2.85e-13 PD=5.6e-07 PS=1.64e-06
mX98/M3 N_VDD!_X98/M3_d N_93_X98/M3_g N_26_X98/M3_s N_VDD!_X26/M1_b P_18
+ L=1.8e-07 W=5e-07 AD=3.025e-13 AS=1.4e-13 PD=1.71e-06 PS=5.6e-07
mX99/M0 N_X99/6_X99/M0_d N_A[4]_X99/M0_g N_GND!_X99/M0_s N_GND!_X26/M0_b N_18
+ L=1.8e-07 W=5e-07 AD=1.4e-13 AS=2.85e-13 PD=5.6e-07 PS=1.64e-06
mX99/M1 N_101_X99/M1_d N_28_X99/M1_g N_X99/6_X99/M1_s N_GND!_X26/M0_b N_18
+ L=1.8e-07 W=5e-07 AD=3.025e-13 AS=1.4e-13 PD=1.71e-06 PS=5.6e-07
mX99/M2 N_101_X99/M2_d N_A[4]_X99/M2_g N_VDD!_X99/M2_s N_VDD!_X27/M1_b P_18
+ L=1.8e-07 W=5e-07 AD=1.4e-13 AS=2.85e-13 PD=5.6e-07 PS=1.64e-06
mX99/M3 N_VDD!_X99/M3_d N_28_X99/M3_g N_101_X99/M3_s N_VDD!_X27/M1_b P_18
+ L=1.8e-07 W=5e-07 AD=3.025e-13 AS=1.4e-13 PD=1.71e-06 PS=5.6e-07
mX100/M0 N_X100/6_X100/M0_d N_133_X100/M0_g N_GND!_X100/M0_s N_GND!_X26/M0_b
+ N_18 L=1.8e-07 W=5e-07 AD=1.4e-13 AS=2.85e-13 PD=5.6e-07 PS=1.64e-06
mX100/M1 N_99_X100/M1_d N_30_X100/M1_g N_X100/6_X100/M1_s N_GND!_X26/M0_b N_18
+ L=1.8e-07 W=5e-07 AD=3.025e-13 AS=1.4e-13 PD=1.71e-06 PS=5.6e-07
mX100/M2 N_99_X100/M2_d N_133_X100/M2_g N_VDD!_X100/M2_s N_VDD!_X30/M1_b P_18
+ L=1.8e-07 W=5e-07 AD=1.4e-13 AS=2.85e-13 PD=5.6e-07 PS=1.64e-06
mX100/M3 N_VDD!_X100/M3_d N_30_X100/M3_g N_99_X100/M3_s N_VDD!_X30/M1_b P_18
+ L=1.8e-07 W=5e-07 AD=3.025e-13 AS=1.4e-13 PD=1.71e-06 PS=5.6e-07
mX101/M0 N_X101/6_X101/M0_d N_36_X101/M0_g N_GND!_X101/M0_s N_GND!_X26/M0_b N_18
+ L=1.8e-07 W=5e-07 AD=1.4e-13 AS=2.85e-13 PD=5.6e-07 PS=1.64e-06
mX101/M1 N_34_X101/M1_d N_99_X101/M1_g N_X101/6_X101/M1_s N_GND!_X26/M0_b N_18
+ L=1.8e-07 W=5e-07 AD=3.025e-13 AS=1.4e-13 PD=1.71e-06 PS=5.6e-07
mX101/M2 N_34_X101/M2_d N_36_X101/M2_g N_VDD!_X101/M2_s N_VDD!_X30/M1_b P_18
+ L=1.8e-07 W=5e-07 AD=1.4e-13 AS=2.85e-13 PD=5.6e-07 PS=1.64e-06
mX101/M3 N_VDD!_X101/M3_d N_99_X101/M3_g N_34_X101/M3_s N_VDD!_X30/M1_b P_18
+ L=1.8e-07 W=5e-07 AD=3.025e-13 AS=1.4e-13 PD=1.71e-06 PS=5.6e-07
mX102/M0 N_X102/6_X102/M0_d N_45_X102/M0_g N_GND!_X102/M0_s N_GND!_X26/M0_b N_18
+ L=1.8e-07 W=5e-07 AD=1.4e-13 AS=2.85e-13 PD=5.6e-07 PS=1.64e-06
mX102/M1 N_102_X102/M1_d N_55_X102/M1_g N_X102/6_X102/M1_s N_GND!_X26/M0_b N_18
+ L=1.8e-07 W=5e-07 AD=3.025e-13 AS=1.4e-13 PD=1.71e-06 PS=5.6e-07
mX102/M2 N_102_X102/M2_d N_45_X102/M2_g N_VDD!_X102/M2_s N_VDD!_X30/M1_b P_18
+ L=1.8e-07 W=5e-07 AD=1.4e-13 AS=2.85e-13 PD=5.6e-07 PS=1.64e-06
mX102/M3 N_VDD!_X102/M3_d N_55_X102/M3_g N_102_X102/M3_s N_VDD!_X30/M1_b P_18
+ L=1.8e-07 W=5e-07 AD=3.025e-13 AS=1.4e-13 PD=1.71e-06 PS=5.6e-07
mX103/M0 N_X103/6_X103/M0_d N_102_X103/M0_g N_GND!_X103/M0_s N_GND!_X26/M0_b
+ N_18 L=1.8e-07 W=5e-07 AD=1.4e-13 AS=2.85e-13 PD=5.6e-07 PS=1.64e-06
mX103/M1 N_105_X103/M1_d N_43_X103/M1_g N_X103/6_X103/M1_s N_GND!_X26/M0_b N_18
+ L=1.8e-07 W=5e-07 AD=3.025e-13 AS=1.4e-13 PD=1.71e-06 PS=5.6e-07
mX103/M2 N_105_X103/M2_d N_102_X103/M2_g N_VDD!_X103/M2_s N_VDD!_X30/M1_b P_18
+ L=1.8e-07 W=5e-07 AD=1.4e-13 AS=2.85e-13 PD=5.6e-07 PS=1.64e-06
mX103/M3 N_VDD!_X103/M3_d N_43_X103/M3_g N_105_X103/M3_s N_VDD!_X30/M1_b P_18
+ L=1.8e-07 W=5e-07 AD=3.025e-13 AS=1.4e-13 PD=1.71e-06 PS=5.6e-07
mX104/M0 N_X104/6_X104/M0_d N_B[3]_X104/M0_g N_GND!_X104/M0_s N_GND!_X26/M0_b
+ N_18 L=1.8e-07 W=5e-07 AD=1.4e-13 AS=2.85e-13 PD=5.6e-07 PS=1.64e-06
mX104/M1 N_103_X104/M1_d N_51_X104/M1_g N_X104/6_X104/M1_s N_GND!_X26/M0_b N_18
+ L=1.8e-07 W=5e-07 AD=3.025e-13 AS=1.4e-13 PD=1.71e-06 PS=5.6e-07
mX104/M2 N_103_X104/M2_d N_B[3]_X104/M2_g N_VDD!_X104/M2_s N_VDD!_X28/M1_b P_18
+ L=1.8e-07 W=5e-07 AD=1.4e-13 AS=2.85e-13 PD=5.6e-07 PS=1.64e-06
mX104/M3 N_VDD!_X104/M3_d N_51_X104/M3_g N_103_X104/M3_s N_VDD!_X28/M1_b P_18
+ L=1.8e-07 W=5e-07 AD=3.025e-13 AS=1.4e-13 PD=1.71e-06 PS=5.6e-07
mX105/M0 N_X105/6_X105/M0_d N_42_X105/M0_g N_GND!_X105/M0_s N_GND!_X26/M0_b N_18
+ L=1.8e-07 W=5e-07 AD=1.4e-13 AS=2.85e-13 PD=5.6e-07 PS=1.64e-06
mX105/M1 N_39_X105/M1_d N_48_X105/M1_g N_X105/6_X105/M1_s N_GND!_X26/M0_b N_18
+ L=1.8e-07 W=5e-07 AD=3.025e-13 AS=1.4e-13 PD=1.71e-06 PS=5.6e-07
mX105/M2 N_39_X105/M2_d N_42_X105/M2_g N_VDD!_X105/M2_s N_VDD!_X33/M1_b P_18